api/pglib_opf_case4661_sdet__api.m
%%%%%%%%%%%%%%%%%%%%%%%%%%%%%%%%%%%%%%%%%%%%%%%%%%%%%%%%%%%%%%%%%%%%%%%%%%%
%%%%                                                                  %%%%%
%%%%    IEEE PES Power Grid Library - Optimal Power Flow - v18.08     %%%%%
%%%%          (https://github.com/power-grid-lib/pglib-opf)           %%%%%
%%%%             Benchmark Group - Active Power Increase              %%%%%
%%%%                         31 - July - 2018                         %%%%%
%%%%                                                                  %%%%%
%%%%%%%%%%%%%%%%%%%%%%%%%%%%%%%%%%%%%%%%%%%%%%%%%%%%%%%%%%%%%%%%%%%%%%%%%%%
function mpc = pglib_opf_case4661_sdet__api
mpc.version = '2';
mpc.baseMVA = 100.0;

%% bus data
%	bus_i	type	Pd	Qd	Gs	Bs	area	Vm	Va	baseKV	zone	Vmax	Vmin
mpc.bus = [
	1	 2	 0.0	 0.0	 0.0	 0.0	 1	    1.00000	    0.00000	 345.0	 1	    1.10000	    0.90000;
	2	 2	 0.0	 0.0	 0.0	 0.0	 1	    1.00000	    0.00000	 345.0	 1	    1.10000	    0.90000;
	3	 2	 0.0	 0.0	 0.0	 0.0	 1	    1.00000	    0.00000	 345.0	 1	    1.10000	    0.90000;
	4	 1	 122.88	 50.37	 0.0	 0.0	 1	    1.00000	    0.00000	 345.0	 1	    1.10000	    0.90000;
	5	 2	 0.0	 0.0	 0.0	 0.0	 1	    1.00000	    0.00000	 345.0	 1	    1.10000	    0.90000;
	6	 1	 0.0	 0.0	 0.0	 0.0	 1	    1.00000	    0.00000	 345.0	 1	    1.10000	    0.90000;
	7	 1	 0.0	 0.0	 0.0	 0.0	 1	    1.00000	    0.00000	 345.0	 1	    1.10000	    0.90000;
	8	 1	 0.0	 0.0	 0.0	 0.0	 1	    1.00000	    0.00000	 345.0	 1	    1.10000	    0.90000;
	9	 1	 126.73	 39.67	 0.0	 0.0	 1	    1.00000	    0.00000	 345.0	 1	    1.10000	    0.90000;
	10	 2	 0.0	 0.0	 0.0	 0.0	 1	    1.00000	    0.00000	 345.0	 1	    1.10000	    0.90000;
	11	 1	 0.0	 0.0	 0.0	 0.0	 1	    1.00000	    0.00000	 345.0	 1	    1.10000	    0.90000;
	12	 2	 9.39	 20.00	 0.0	 0.0	 1	    1.00000	    0.00000	 345.0	 1	    1.10000	    0.90000;
	13	 2	 9.51	 20.00	 0.0	 0.0	 1	    1.00000	    0.00000	 345.0	 1	    1.10000	    0.90000;
	14	 1	 0.0	 0.0	 0.0	 0.0	 1	    1.00000	    0.00000	 345.0	 1	    1.10000	    0.90000;
	15	 2	 0.00	 -13.01	 0.0	 0.0	 1	    1.00000	    0.00000	 345.0	 1	    1.10000	    0.90000;
	16	 1	 0.0	 0.0	 0.0	 0.0	 1	    1.00000	    0.00000	 345.0	 1	    1.10000	    0.90000;
	17	 1	 0.0	 0.0	 0.0	 94.26	 1	    1.00000	    0.00000	 345.0	 1	    1.10000	    0.90000;
	18	 2	 14.63	 30.00	 0.0	 0.0	 1	    1.00000	    0.00000	 345.0	 1	    1.10000	    0.90000;
	19	 2	 29.01	 60.00	 0.0	 0.0	 1	    1.00000	    0.00000	 345.0	 1	    1.10000	    0.90000;
	20	 2	 46.32	 64.00	 0.0	 0.0	 1	    1.00000	    0.00000	 500.0	 1	    1.10000	    0.90000;
	21	 1	 175.56	 -19.75	 0.0	 0.0	 1	    1.00000	    0.00000	 345.0	 1	    1.10000	    0.90000;
	22	 1	 0.0	 0.0	 0.0	 0.0	 1	    1.00000	    0.00000	 345.0	 1	    1.10000	    0.90000;
	23	 1	 0.0	 0.0	 0.0	 0.0	 1	    1.00000	    0.00000	 345.0	 1	    1.10000	    0.90000;
	24	 2	 0.0	 0.0	 0.0	 168.92	 1	    1.00000	    0.00000	 500.0	 1	    1.10000	    0.90000;
	25	 2	 0.0	 0.0	 0.0	 -33.19	 1	    1.00000	    0.00000	 345.0	 1	    1.10000	    0.90000;
	26	 1	 124.91	 53.02	 0.0	 0.0	 1	    1.00000	    0.00000	 345.0	 1	    1.10000	    0.90000;
	27	 1	 0.0	 0.0	 0.0	 0.0	 1	    1.00000	    0.00000	 345.0	 1	    1.10000	    0.90000;
	28	 1	 0.0	 0.0	 0.0	 0.0	 1	    1.00000	    0.00000	 345.0	 1	    1.10000	    0.90000;
	29	 1	 33.71	 -15.57	 0.0	 0.0	 1	    1.00000	    0.00000	 345.0	 1	    1.10000	    0.90000;
	30	 1	 0.0	 0.0	 0.0	 0.0	 1	    1.00000	    0.00000	 345.0	 1	    1.10000	    0.90000;
	31	 1	 0.0	 0.0	 0.0	 0.0	 1	    1.00000	    0.00000	 345.0	 1	    1.10000	    0.90000;
	32	 2	 0.0	 0.0	 0.0	 118.65	 1	    1.00000	    0.00000	 500.0	 1	    1.10000	    0.90000;
	33	 1	 0.0	 0.0	 0.0	 0.0	 1	    1.00000	    0.00000	 345.0	 1	    1.10000	    0.90000;
	34	 1	 0.0	 0.0	 0.0	 0.0	 1	    1.00000	    0.00000	 345.0	 1	    1.10000	    0.90000;
	35	 1	 0.0	 0.0	 0.0	 0.0	 1	    1.00000	    0.00000	 345.0	 1	    1.10000	    0.90000;
	36	 1	 0.0	 0.0	 0.0	 -16.94	 1	    1.00000	    0.00000	 345.0	 1	    1.10000	    0.90000;
	37	 1	 70.55	 42.37	 0.0	 2.23	 1	    1.00000	    0.00000	 345.0	 1	    1.10000	    0.90000;
	38	 1	 0.0	 0.0	 0.0	 5.87	 1	    1.00000	    0.00000	 345.0	 1	    1.10000	    0.90000;
	39	 1	 0.0	 0.0	 0.0	 2.56	 1	    1.00000	    0.00000	 345.0	 1	    1.10000	    0.90000;
	40	 1	 0.0	 0.0	 0.0	 6.7	 1	    1.00000	    0.00000	 345.0	 1	    1.10000	    0.90000;
	41	 1	 0.0	 0.0	 0.0	 40.02	 1	    1.00000	    0.00000	 16.0	 1	    1.10000	    0.90000;
	42	 1	 6.97	 1.60	 0.0	 0.0	 1	    1.00000	    0.00000	 138.0	 1	    1.10000	    0.90000;
	43	 1	 4.69	 1.40	 0.0	 0.0	 1	    1.00000	    0.00000	 138.0	 1	    1.10000	    0.90000;
	44	 2	 65.54	 21.02	 0.0	 0.0	 1	    1.00000	    0.00000	 138.0	 1	    1.10000	    0.90000;
	45	 2	 93.93	 34.03	 0.0	 0.0	 1	    1.00000	    0.00000	 138.0	 1	    1.10000	    0.90000;
	46	 1	 4.57	 0.50	 0.0	 0.0	 1	    1.00000	    0.00000	 138.0	 1	    1.10000	    0.90000;
	47	 1	 0.0	 0.0	 0.0	 0.0	 1	    1.00000	    0.00000	 138.0	 1	    1.10000	    0.90000;
	48	 1	 8.06	 1.30	 0.0	 0.0	 1	    1.00000	    0.00000	 138.0	 1	    1.10000	    0.90000;
	49	 1	 6.73	 0.60	 0.0	 0.0	 1	    1.00000	    0.00000	 138.0	 1	    1.10000	    0.90000;
	50	 1	 5.05	 0.60	 0.0	 0.0	 1	    1.00000	    0.00000	 138.0	 1	    1.10000	    0.90000;
	51	 1	 0.0	 0.0	 0.0	 0.0	 1	    1.00000	    0.00000	 138.0	 1	    1.10000	    0.90000;
	52	 1	 7.57	 1.20	 0.0	 0.0	 1	    1.00000	    0.00000	 138.0	 1	    1.10000	    0.90000;
	53	 1	 10.58	 1.60	 0.0	 0.0	 1	    1.00000	    0.00000	 138.0	 1	    1.10000	    0.90000;
	54	 1	 4.81	 0.20	 0.0	 0.0	 1	    1.00000	    0.00000	 138.0	 1	    1.10000	    0.90000;
	55	 1	 33.76	 7.77	 0.0	 0.0	 1	    1.00000	    0.00000	 138.0	 1	    1.10000	    0.90000;
	56	 1	 0.0	 0.0	 0.0	 0.0	 1	    1.00000	    0.00000	 138.0	 1	    1.10000	    0.90000;
	57	 1	 9.98	 1.80	 0.0	 0.0	 1	    1.00000	    0.00000	 138.0	 1	    1.10000	    0.90000;
	58	 1	 0.0	 0.0	 0.0	 0.0	 1	    1.00000	    0.00000	 138.0	 1	    1.10000	    0.90000;
	59	 2	 7.34	 2.70	 0.0	 0.0	 1	    1.00000	    0.00000	 138.0	 1	    1.10000	    0.90000;
	60	 1	 9.62	 0.20	 0.0	 0.0	 1	    1.00000	    0.00000	 138.0	 1	    1.10000	    0.90000;
	61	 1	 0.0	 0.0	 0.0	 0.0	 1	    1.00000	    0.00000	 138.0	 1	    1.10000	    0.90000;
	62	 1	 4.45	 1.20	 0.0	 0.0	 1	    1.00000	    0.00000	 138.0	 1	    1.10000	    0.90000;
	63	 1	 28.05	 3.27	 0.0	 0.0	 1	    1.00000	    0.00000	 138.0	 1	    1.10000	    0.90000;
	64	 2	 2.71	 0.71	 0.0	 -34.1	 1	    1.00000	    0.00000	 138.0	 1	    1.10000	    0.90000;
	65	 1	 2.79	 0.33	 0.0	 0.0	 1	    1.00000	    0.00000	 138.0	 1	    1.10000	    0.90000;
	66	 1	 2.54	 0.84	 0.0	 7.69	 1	    1.00000	    0.00000	 138.0	 1	    1.10000	    0.90000;
	67	 1	 6.73	 1.36	 0.0	 0.0	 1	    1.00000	    0.00000	 138.0	 1	    1.10000	    0.90000;
	68	 1	 82.43	 25.33	 0.0	 0.0	 1	    1.00000	    0.00000	 138.0	 1	    1.10000	    0.90000;
	69	 1	 8.00	 2.09	 0.0	 0.0	 1	    1.00000	    0.00000	 138.0	 1	    1.10000	    0.90000;
	70	 1	 53.26	 -14.07	 0.0	 0.0	 1	    1.00000	    0.00000	 138.0	 1	    1.10000	    0.90000;
	71	 1	 135.16	 66.23	 0.0	 0.0	 1	    1.00000	    0.00000	 138.0	 1	    1.10000	    0.90000;
	72	 1	 0.0	 0.0	 0.0	 0.0	 1	    1.00000	    0.00000	 138.0	 1	    1.10000	    0.90000;
	73	 1	 15.24	 2.20	 0.0	 0.0	 1	    1.00000	    0.00000	 138.0	 1	    1.10000	    0.90000;
	74	 1	 9.64	 1.37	 0.0	 0.0	 1	    1.00000	    0.00000	 138.0	 1	    1.10000	    0.90000;
	75	 1	 29.74	 10.74	 0.0	 0.0	 1	    1.00000	    0.00000	 138.0	 1	    1.10000	    0.90000;
	76	 1	 20.66	 4.84	 0.0	 0.0	 1	    1.00000	    0.00000	 138.0	 1	    1.10000	    0.90000;
	77	 1	 8.87	 2.63	 0.0	 0.0	 1	    1.00000	    0.00000	 138.0	 1	    1.10000	    0.90000;
	78	 1	 0.0	 0.0	 0.0	 0.0	 1	    1.00000	    0.00000	 138.0	 1	    1.10000	    0.90000;
	79	 1	 19.97	 4.42	 0.0	 0.0	 1	    1.00000	    0.00000	 138.0	 1	    1.10000	    0.90000;
	80	 2	 1.22	 3.00	 0.0	 0.0	 1	    1.00000	    0.00000	 138.0	 1	    1.10000	    0.90000;
	81	 1	 0.0	 0.0	 0.0	 0.0	 1	    1.00000	    0.00000	 138.0	 1	    1.10000	    0.90000;
	82	 2	 3.68	 1.89	 0.0	 -5.96	 1	    1.00000	    0.00000	 138.0	 1	    1.10000	    0.90000;
	83	 1	 8.37	 3.68	 0.0	 0.0	 1	    1.00000	    0.00000	 138.0	 1	    1.10000	    0.90000;
	84	 2	 4.06	 0.71	 0.0	 0.0	 1	    1.00000	    0.00000	 138.0	 1	    1.10000	    0.90000;
	85	 2	 19.23	 30.64	 0.0	 0.0	 1	    1.00000	    0.00000	 138.0	 1	    1.10000	    0.90000;
	86	 1	 22.85	 5.96	 0.0	 3.89	 1	    1.00000	    0.00000	 138.0	 1	    1.10000	    0.90000;
	87	 1	 279.48	 29.74	 0.0	 -60.0	 1	    1.00000	    0.00000	 138.0	 1	    1.10000	    0.90000;
	88	 1	 13.97	 3.77	 0.0	 0.0	 1	    1.00000	    0.00000	 138.0	 1	    1.10000	    0.90000;
	89	 1	 15.36	 5.64	 0.0	 0.0	 1	    1.00000	    0.00000	 138.0	 1	    1.10000	    0.90000;
	90	 1	 28.10	 -1.93	 0.0	 0.0	 1	    1.00000	    0.00000	 138.0	 1	    1.10000	    0.90000;
	91	 1	 12.30	 5.57	 0.0	 0.0	 1	    1.00000	    0.00000	 138.0	 1	    1.10000	    0.90000;
	92	 1	 0.0	 0.0	 0.0	 0.0	 1	    1.00000	    0.00000	 138.0	 1	    1.10000	    0.90000;
	93	 1	 6.34	 1.47	 0.0	 0.0	 1	    1.00000	    0.00000	 138.0	 1	    1.10000	    0.90000;
	94	 1	 45.72	 -10.43	 0.0	 0.0	 1	    1.00000	    0.00000	 138.0	 1	    1.10000	    0.90000;
	95	 1	 0.0	 0.0	 0.0	 0.0	 1	    1.00000	    0.00000	 138.0	 1	    1.10000	    0.90000;
	96	 1	 0.0	 0.0	 0.0	 0.0	 1	    1.00000	    0.00000	 138.0	 1	    1.10000	    0.90000;
	97	 1	 4.31	 0.21	 0.0	 0.0	 1	    1.00000	    0.00000	 138.0	 1	    1.10000	    0.90000;
	98	 2	 5.36	 5.71	 0.0	 0.0	 1	    1.00000	    0.00000	 138.0	 1	    1.10000	    0.90000;
	99	 2	 7.72	 5.23	 0.0	 12.01	 1	    1.00000	    0.00000	 138.0	 1	    1.10000	    0.90000;
	100	 1	 18.49	 4.72	 0.0	 0.0	 1	    1.00000	    0.00000	 138.0	 1	    1.10000	    0.90000;
	101	 1	 15.92	 4.72	 0.0	 0.0	 1	    1.00000	    0.00000	 138.0	 1	    1.10000	    0.90000;
	102	 1	 0.0	 0.0	 0.0	 0.0	 1	    1.00000	    0.00000	 138.0	 1	    1.10000	    0.90000;
	103	 1	 29.57	 11.73	 0.0	 0.0	 1	    1.00000	    0.00000	 138.0	 1	    1.10000	    0.90000;
	104	 1	 11.52	 4.22	 0.0	 -3.12	 1	    1.00000	    0.00000	 138.0	 1	    1.10000	    0.90000;
	105	 1	 10.90	 4.02	 0.0	 0.0	 1	    1.00000	    0.00000	 138.0	 1	    1.10000	    0.90000;
	106	 1	 11.88	 5.12	 0.0	 0.0	 1	    1.00000	    0.00000	 138.0	 1	    1.10000	    0.90000;
	107	 1	 6.74	 2.01	 0.0	 0.0	 1	    1.00000	    0.00000	 138.0	 1	    1.10000	    0.90000;
	108	 1	 6.36	 1.91	 0.0	 0.0	 1	    1.00000	    0.00000	 138.0	 1	    1.10000	    0.90000;
	109	 1	 14.72	 3.61	 0.0	 0.0	 1	    1.00000	    0.00000	 138.0	 1	    1.10000	    0.90000;
	110	 2	 29.55	 1.56	 0.0	 0.0	 1	    1.00000	    0.00000	 138.0	 1	    1.10000	    0.90000;
	111	 1	 12.13	 2.41	 0.0	 0.0	 1	    1.00000	    0.00000	 138.0	 1	    1.10000	    0.90000;
	112	 1	 155.37	 30.18	 0.0	 0.0	 1	    1.00000	    0.00000	 138.0	 1	    1.10000	    0.90000;
	113	 2	 0.0	 0.0	 0.0	 0.0	 1	    1.00000	    0.00000	 138.0	 1	    1.10000	    0.90000;
	114	 1	 0.0	 0.0	 0.0	 0.0	 1	    1.00000	    0.00000	 138.0	 1	    1.10000	    0.90000;
	115	 2	 8.81	 2.61	 0.0	 0.0	 1	    1.00000	    0.00000	 138.0	 1	    1.10000	    0.90000;
	116	 1	 8.69	 2.61	 0.0	 0.0	 1	    1.00000	    0.00000	 138.0	 1	    1.10000	    0.90000;
	117	 1	 10.90	 2.71	 0.0	 0.0	 1	    1.00000	    0.00000	 138.0	 1	    1.10000	    0.90000;
	118	 1	 7.23	 1.41	 0.0	 0.0	 1	    1.00000	    0.00000	 138.0	 1	    1.10000	    0.90000;
	119	 1	 0.0	 0.0	 0.0	 45.0	 1	    1.00000	    0.00000	 16.0	 1	    1.10000	    0.90000;
	120	 2	 31.96	 20.39	 0.0	 0.0	 1	    1.00000	    0.00000	 138.0	 1	    1.10000	    0.90000;
	121	 1	 26.94	 -4.46	 0.0	 0.0	 1	    1.00000	    0.00000	 138.0	 1	    1.10000	    0.90000;
	122	 1	 3.80	 1.41	 0.0	 0.0	 1	    1.00000	    0.00000	 138.0	 1	    1.10000	    0.90000;
	123	 1	 0.0	 0.0	 0.0	 0.0	 1	    1.00000	    0.00000	 138.0	 1	    1.10000	    0.90000;
	124	 2	 0.0	 0.0	 0.0	 0.0	 1	    1.00000	    0.00000	 138.0	 1	    1.10000	    0.90000;
	125	 1	 10.77	 2.91	 0.0	 0.0	 1	    1.00000	    0.00000	 138.0	 1	    1.10000	    0.90000;
	126	 1	 6.61	 2.31	 0.0	 0.0	 1	    1.00000	    0.00000	 138.0	 1	    1.10000	    0.90000;
	127	 1	 5.75	 2.11	 0.0	 0.0	 1	    1.00000	    0.00000	 138.0	 1	    1.10000	    0.90000;
	128	 2	 11.52	 3.71	 0.0	 0.0	 1	    1.00000	    0.00000	 138.0	 1	    1.10000	    0.90000;
	129	 1	 15.92	 4.22	 0.0	 0.0	 1	    1.00000	    0.00000	 138.0	 1	    1.10000	    0.90000;
	130	 1	 11.02	 5.52	 0.0	 0.0	 1	    1.00000	    0.00000	 138.0	 1	    1.10000	    0.90000;
	131	 1	 17.05	 11.80	 0.0	 0.0	 1	    1.00000	    0.00000	 138.0	 1	    1.10000	    0.90000;
	132	 2	 14.70	 9.44	 0.0	 0.0	 1	    1.00000	    0.00000	 138.0	 1	    1.10000	    0.90000;
	133	 2	 0.0	 0.0	 0.0	 0.0	 1	    1.00000	    0.00000	 138.0	 1	    1.10000	    0.90000;
	134	 1	 10.90	 3.82	 0.0	 0.0	 1	    1.00000	    0.00000	 138.0	 1	    1.10000	    0.90000;
	135	 1	 13.47	 3.72	 0.0	 0.0	 1	    1.00000	    0.00000	 138.0	 1	    1.10000	    0.90000;
	136	 2	 13.47	 3.86	 0.0	 -1.17	 1	    1.00000	    0.00000	 138.0	 1	    1.10000	    0.90000;
	137	 1	 4.66	 1.00	 0.0	 0.0	 1	    1.00000	    0.00000	 138.0	 1	    1.10000	    0.90000;
	138	 1	 24.87	 6.83	 0.0	 0.0	 1	    1.00000	    0.00000	 138.0	 1	    1.10000	    0.90000;
	139	 1	 11.52	 3.11	 0.0	 0.0	 1	    1.00000	    0.00000	 138.0	 1	    1.10000	    0.90000;
	140	 1	 0.0	 0.0	 0.0	 0.0	 1	    1.00000	    0.00000	 138.0	 1	    1.10000	    0.90000;
	141	 1	 12.74	 5.22	 0.0	 0.0	 1	    1.00000	    0.00000	 138.0	 1	    1.10000	    0.90000;
	142	 1	 5.75	 2.11	 0.0	 0.0	 1	    1.00000	    0.00000	 138.0	 1	    1.10000	    0.90000;
	143	 1	 8.32	 2.31	 0.0	 0.0	 1	    1.00000	    0.00000	 138.0	 1	    1.10000	    0.90000;
	144	 1	 17.35	 -0.23	 0.0	 0.0	 1	    1.00000	    0.00000	 138.0	 1	    1.10000	    0.90000;
	145	 1	 15.55	 4.32	 0.0	 0.0	 1	    1.00000	    0.00000	 138.0	 1	    1.10000	    0.90000;
	146	 1	 0.0	 0.0	 0.0	 0.0	 1	    1.00000	    0.00000	 138.0	 1	    1.10000	    0.90000;
	147	 2	 20.45	 6.33	 0.0	 0.0	 1	    1.00000	    0.00000	 138.0	 1	    1.10000	    0.90000;
	148	 1	 19.10	 4.72	 0.0	 0.0	 1	    1.00000	    0.00000	 138.0	 1	    1.10000	    0.90000;
	149	 1	 19.10	 4.22	 0.0	 0.0	 1	    1.00000	    0.00000	 138.0	 1	    1.10000	    0.90000;
	150	 1	 13.35	 3.19	 0.0	 0.0	 1	    1.00000	    0.00000	 138.0	 1	    1.10000	    0.90000;
	151	 1	 31.53	 0.56	 0.0	 0.0	 1	    1.00000	    0.00000	 138.0	 1	    1.10000	    0.90000;
	152	 1	 7.84	 2.81	 0.0	 0.0	 1	    1.00000	    0.00000	 138.0	 1	    1.10000	    0.90000;
	153	 2	 102.26	 27.21	 0.0	 0.0	 1	    1.00000	    0.00000	 138.0	 1	    1.10000	    0.90000;
	154	 1	 5.02	 2.51	 0.0	 0.0	 1	    1.00000	    0.00000	 138.0	 1	    1.10000	    0.90000;
	155	 1	 70.67	 32.55	 0.0	 0.0	 1	    1.00000	    0.00000	 138.0	 1	    1.10000	    0.90000;
	156	 1	 30.62	 8.34	 0.0	 0.0	 1	    1.00000	    0.00000	 138.0	 1	    1.10000	    0.90000;
	157	 2	 23.39	 12.25	 0.0	 0.0	 1	    1.00000	    0.00000	 138.0	 1	    1.10000	    0.90000;
	158	 1	 16.04	 7.63	 0.0	 0.0	 1	    1.00000	    0.00000	 138.0	 1	    1.10000	    0.90000;
	159	 2	 22.90	 6.73	 0.0	 0.0	 1	    1.00000	    0.00000	 138.0	 1	    1.10000	    0.90000;
	160	 2	 26.82	 20.15	 0.0	 0.0	 1	    1.00000	    0.00000	 138.0	 1	    1.10000	    0.90000;
	161	 1	 15.19	 5.42	 0.0	 0.0	 1	    1.00000	    0.00000	 138.0	 1	    1.10000	    0.90000;
	162	 1	 51.07	 16.77	 0.0	 0.0	 1	    1.00000	    0.00000	 138.0	 1	    1.10000	    0.90000;
	163	 1	 25.60	 8.33	 0.0	 0.0	 1	    1.00000	    0.00000	 138.0	 1	    1.10000	    0.90000;
	164	 1	 2.57	 0.80	 0.0	 0.0	 1	    1.00000	    0.00000	 138.0	 1	    1.10000	    0.90000;
	165	 1	 54.13	 14.96	 0.0	 0.0	 1	    1.00000	    0.00000	 138.0	 1	    1.10000	    0.90000;
	166	 1	 61.85	 16.87	 0.0	 0.0	 1	    1.00000	    0.00000	 138.0	 1	    1.10000	    0.90000;
	167	 1	 17.27	 5.22	 0.0	 0.0	 1	    1.00000	    0.00000	 138.0	 1	    1.10000	    0.90000;
	168	 1	 0.0	 0.0	 0.0	 0.0	 1	    1.00000	    0.00000	 500.0	 1	    1.10000	    0.90000;
	169	 1	 0.0	 0.0	 0.0	 0.0	 2	    1.00000	    0.00000	 500.0	 2	    1.10000	    0.90000;
	170	 2	 0.0	 0.0	 0.0	 0.0	 2	    1.00000	    0.00000	 500.0	 2	    1.10000	    0.90000;
	171	 2	 0.0	 0.0	 0.0	 0.0	 2	    1.00000	    0.00000	 500.0	 2	    1.10000	    0.90000;
	172	 2	 0.0	 0.0	 0.0	 0.0	 2	    1.00000	    0.00000	 500.0	 2	    1.10000	    0.90000;
	173	 1	 122.12	 -142.76	 0.0	 0.0	 2	    1.00000	    0.00000	 500.0	 2	    1.10000	    0.90000;
	174	 1	 0.0	 0.0	 0.0	 0.0	 2	    1.00000	    0.00000	 500.0	 2	    1.10000	    0.90000;
	175	 2	 0.0	 0.0	 0.0	 0.0	 2	    1.00000	    0.00000	 500.0	 2	    1.10000	    0.90000;
	176	 2	 0.0	 0.0	 0.0	 0.0	 2	    1.00000	    0.00000	 500.0	 2	    1.10000	    0.90000;
	177	 2	 0.0	 0.0	 0.0	 0.0	 2	    1.00000	    0.00000	 500.0	 2	    1.10000	    0.90000;
	178	 2	 0.0	 0.0	 0.0	 0.0	 2	    1.00000	    0.00000	 500.0	 2	    1.10000	    0.90000;
	179	 1	 5.48	 3.37	 0.0	 0.0	 2	    1.00000	    0.00000	 500.0	 2	    1.10000	    0.90000;
	180	 2	 0.0	 0.0	 0.0	 0.0	 2	    1.00000	    0.00000	 500.0	 2	    1.10000	    0.90000;
	181	 2	 0.0	 0.0	 0.0	 0.0	 2	    1.00000	    0.00000	 500.0	 2	    1.10000	    0.90000;
	182	 1	 0.0	 0.0	 0.0	 0.0	 2	    1.00000	    0.00000	 500.0	 2	    1.10000	    0.90000;
	183	 2	 0.0	 0.0	 0.0	 0.0	 2	    1.00000	    0.00000	 500.0	 2	    1.10000	    0.90000;
	184	 2	 0.0	 0.0	 0.0	 0.0	 2	    1.00000	    0.00000	 500.0	 2	    1.10000	    0.90000;
	185	 2	 0.0	 0.0	 0.0	 0.0	 2	    1.00000	    0.00000	 500.0	 2	    1.10000	    0.90000;
	186	 2	 0.0	 0.0	 0.0	 0.0	 2	    1.00000	    0.00000	 500.0	 2	    1.10000	    0.90000;
	187	 1	 0.0	 0.0	 0.0	 0.0	 2	    1.00000	    0.00000	 500.0	 2	    1.10000	    0.90000;
	188	 2	 0.0	 0.0	 0.0	 0.0	 2	    1.00000	    0.00000	 500.0	 2	    1.10000	    0.90000;
	189	 2	 0.0	 0.0	 0.0	 0.0	 2	    1.00000	    0.00000	 500.0	 2	    1.10000	    0.90000;
	190	 2	 0.0	 0.0	 0.0	 0.0	 2	    1.00000	    0.00000	 500.0	 2	    1.10000	    0.90000;
	191	 1	 0.0	 0.0	 0.0	 0.0	 2	    1.00000	    0.00000	 500.0	 2	    1.10000	    0.90000;
	192	 2	 0.0	 0.0	 0.0	 0.0	 2	    1.00000	    0.00000	 500.0	 2	    1.10000	    0.90000;
	193	 2	 0.0	 0.0	 0.0	 0.0	 2	    1.00000	    0.00000	 500.0	 2	    1.10000	    0.90000;
	194	 2	 0.0	 0.0	 0.0	 0.0	 2	    1.00000	    0.00000	 500.0	 2	    1.10000	    0.90000;
	195	 1	 0.0	 0.0	 0.0	 0.0	 2	    1.00000	    0.00000	 500.0	 2	    1.10000	    0.90000;
	196	 1	 32.23	 39.00	 0.0	 0.0	 2	    1.00000	    0.00000	 500.0	 2	    1.10000	    0.90000;
	197	 2	 0.0	 0.0	 0.0	 0.0	 2	    1.00000	    0.00000	 500.0	 2	    1.10000	    0.90000;
	198	 2	 0.0	 0.0	 0.0	 0.0	 2	    1.00000	    0.00000	 500.0	 2	    1.10000	    0.90000;
	199	 1	 0.0	 0.0	 0.0	 0.0	 2	    1.00000	    0.00000	 500.0	 2	    1.10000	    0.90000;
	200	 1	 0.0	 0.0	 0.0	 0.0	 2	    1.00000	    0.00000	 500.0	 2	    1.10000	    0.90000;
...
];

%% generator data
%	bus	Pg	Qg	Qmax	Qmin	Vg	mBase	status	Pmax	Pmin	Pc1	Pc2	Qc1min	Qc1max	Qc2min	Qc2max	ramp_agc	ramp_10	ramp_30	ramp_q	apf
mpc.gen = [
	1	 51.3975	 0.0	 157.99	 -157.99	 1.0275	 100.0	 1	 102	 0.795	 0.0	 0.0	 0.0	 0.0	 0.0	 0.0	 0.0	 0.0	 0.0	 0.0	 64.818; % NG
	2	 88.805	 0.0	 91.2	 -91.2	 0.9718	 100.0	 1	 150	 27.61	 0.0	 0.0	 0.0	 0.0	 0.0	 0.0	 0.0	 0.0	 0.0	 0.0	 170.701; % NG
	3	 45.8	 -14.855	 118.84	 -148.55	 0.9716	 100.0	 1	 87	 4.6	 0.0	 0.0	 0.0	 0.0	 0.0	 0.0	 0.0	 0.0	 0.0	 0.0	 46.109; % NG
	5	 152.385	 0.0	 114.0	 -114.0	 1.0058	 100.0	 1	 227	 77.77	 0.0	 0.0	 0.0	 0.0	 0.0	 0.0	 0.0	 0.0	 0.0	 0.0	 228.682; % NG
	10	 56.8925	 -8.13	 65.04	 -81.3	 0.9909	 100.0	 1	 91	 22.785	 0.0	 0.0	 0.0	 0.0	 0.0	 0.0	 0.0	 0.0	 0.0	 0.0	 83.063; % NG
	12	 191.4175	 0.0	 169.0	 -169.0	 1.0204	 166.81	 1	 337	 45.835	 0.0	 0.0	 0.0	 0.0	 0.0	 0.0	 0.0	 0.0	 0.0	 0.0	 137.5; % NG
	12	 170.5	 0.0	 146.0	 -146.0	 1.0204	 120.0	 0	 291	 50.0	 0.0	 0.0	 0.0	 0.0	 0.0	 0.0	 0.0	 0.0	 0.0	 0.0	 120.0; % NG
	13	 126.4175	 0.0	 104.0	 -104.0	 1.0204	 166.81	 1	 207	 45.835	 0.0	 0.0	 0.0	 0.0	 0.0	 0.0	 0.0	 0.0	 0.0	 0.0	 137.5; % COW
	15	 82.0	 0.0	 72.0	 -72.0	 1.015	 50.0	 0	 144	 20.0	 0.0	 0.0	 0.0	 0.0	 0.0	 0.0	 0.0	 0.0	 0.0	 0.0	 50.0; % NG
	18	 139.0	 0.0	 144.0	 -144.0	 1.0164	 225.0	 1	 203	 75.0	 0.0	 0.0	 0.0	 0.0	 0.0	 0.0	 0.0	 0.0	 0.0	 0.0	 225.0; % COW
	19	 151.0	 13.0	 140.0	 -114.0	 1.0164	 275.06	 1	 227	 75.0	 0.0	 0.0	 0.0	 0.0	 0.0	 0.0	 0.0	 0.0	 0.0	 0.0	 250.0; % NG
	19	 188.0	 0.0	 151.0	 -151.0	 1.0164	 200.0	 0	 301	 75.0	 0.0	 0.0	 0.0	 0.0	 0.0	 0.0	 0.0	 0.0	 0.0	 0.0	 200.0; % NG
	19	 333.3325	 0.0	 300.0	 -300.0	 1.0164	 234.36	 1	 600	 66.665	 0.0	 0.0	 0.0	 0.0	 0.0	 0.0	 0.0	 0.0	 0.0	 0.0	 200.0; % COW
	20	 154.5	 54.25	 367.5	 -259.0	 1.0015	 566.05	 1	 216	 93.0	 0.0	 0.0	 0.0	 0.0	 0.0	 0.0	 0.0	 0.0	 0.0	 0.0	 464.0; % NG
	24	 366.68	 0.0	 319.0	 -319.0	 0.9522	 100.0	 1	 637	 96.36	 0.0	 0.0	 0.0	 0.0	 0.0	 0.0	 0.0	 0.0	 0.0	 0.0	 442.978; % NG
	25	 128.05	 0.0	 111.0	 -111.0	 0.9576	 100.0	 0	 221	 35.1	 0.0	 0.0	 0.0	 0.0	 0.0	 0.0	 0.0	 0.0	 0.0	 0.0	 85.204; % NG
	32	 156.12	 0.0	 116.0	 -116.0	 0.9547	 100.0	 0	 231	 81.24	 0.0	 0.0	 0.0	 0.0	 0.0	 0.0	 0.0	 0.0	 0.0	 0.0	 177.483; % NG
	44	 70.25	 0.0	 67.0	 -67.0	 1.0218	 61.03	 1	 133	 7.5	 0.0	 0.0	 0.0	 0.0	 0.0	 0.0	 0.0	 0.0	 0.0	 0.0	 55.0; % NG
	45	 101.25	 0.0	 98.0	 -98.0	 1.0218	 68.9	 1	 195	 7.5	 0.0	 0.0	 0.0	 0.0	 0.0	 0.0	 0.0	 0.0	 0.0	 0.0	 68.75; % PEL
	45	 26.75	 21.5	 71.0	 -28.0	 1.0218	 77.0	 1	 52	 1.5	 0.0	 0.0	 0.0	 0.0	 0.0	 0.0	 0.0	 0.0	 0.0	 0.0	 77.0; % PEL
	59	 34.625	 0.0	 31.0	 -31.0	 1.0143	 100.0	 1	 62	 7.25	 0.0	 0.0	 0.0	 0.0	 0.0	 0.0	 0.0	 0.0	 0.0	 0.0	 36.54; % PEL
	64	 61.4625	 0.0	 56.0	 -56.0	 1.0273	 100.0	 0	 111	 11.925	 0.0	 0.0	 0.0	 0.0	 0.0	 0.0	 0.0	 0.0	 0.0	 0.0	 38.851; % COW
	80	 44.25	 0.0	 36.0	 -36.0	 1.0245	 50.0	 0	 71	 17.5	 0.0	 0.0	 0.0	 0.0	 0.0	 0.0	 0.0	 0.0	 0.0	 0.0	 50.0; % NG
	80	 62.6675	 -59.0	 59.0	 -177.0	 1.0245	 28.0	 1	 117	 8.335	 0.0	 0.0	 0.0	 0.0	 0.0	 0.0	 0.0	 0.0	 0.0	 0.0	 35.0; % NG
	82	 42.8875	 0.0	 39.0	 -39.0	 1.0066	 100.0	 0	 78	 7.775	 0.0	 0.0	 0.0	 0.0	 0.0	 0.0	 0.0	 0.0	 0.0	 0.0	 30.546; % PEL
	84	 170.0	 0.0	 133.0	 -133.0	 1.0245	 200.0	 0	 265	 75.0	 0.0	 0.0	 0.0	 0.0	 0.0	 0.0	 0.0	 0.0	 0.0	 0.0	 200.0; % NG
	85	 165.0	 0.0	 128.0	 -128.0	 1.0273	 253.76	 1	 255	 75.0	 0.0	 0.0	 0.0	 0.0	 0.0	 0.0	 0.0	 0.0	 0.0	 0.0	 200.0; % NG
	98	 25.0	 0.0	 25.0	 -25.0	 1.0164	 50.0	 0	 50	 0.0	 0.0	 0.0	 0.0	 0.0	 0.0	 0.0	 0.0	 0.0	 0.0	 0.0	 50.0; % NG
	98	 73.5	 -50.5	 74.0	 -175.0	 1.0164	 55.0	 1	 147	 0.0	 0.0	 0.0	 0.0	 0.0	 0.0	 0.0	 0.0	 0.0	 0.0	 0.0	 55.0; % NG
	98	 21.5	 0.0	 22.0	 -22.0	 1.0164	 55.0	 0	 43	 0.0	 0.0	 0.0	 0.0	 0.0	 0.0	 0.0	 0.0	 0.0	 0.0	 0.0	 55.0; % NG
	99	 9.0	 0.0	 11.67	 -11.67	 1.0164	 35.0	 0	 18	 0.0	 0.0	 0.0	 0.0	 0.0	 0.0	 0.0	 0.0	 0.0	 0.0	 0.0	 35.0; % NG
	99	 22.5	 0.0	 23.0	 -23.0	 1.0164	 32.0	 0	 45	 0.0	 0.0	 0.0	 0.0	 0.0	 0.0	 0.0	 0.0	 0.0	 0.0	 0.0	 32.0; % NG
	110	 76.25	 0.0	 75.0	 -75.0	 1.0191	 7.0	 0	 150	 2.5	 0.0	 0.0	 0.0	 0.0	 0.0	 0.0	 0.0	 0.0	 0.0	 0.0	 292.0; % NG
	113	 160.855	 0.0	 150.0	 -150.0	 1.0297	 100.0	 1	 300	 21.71	 0.0	 0.0	 0.0	 0.0	 0.0	 0.0	 0.0	 0.0	 0.0	 0.0	 71.879; % COW
	115	 87.75	 10.5	 187.0	 -166.0	 1.0164	 4.02	 1	 175	 0.5	 0.0	 0.0	 0.0	 0.0	 0.0	 0.0	 0.0	 0.0	 0.0	 0.0	 271.0; % NG
	120	 205.5	 0.0	 206.0	 -206.0	 1.0109	 4.0	 0	 411	 0.0	 0.0	 0.0	 0.0	 0.0	 0.0	 0.0	 0.0	 0.0	 0.0	 0.0	 279.0; % NG
	120	 64.5	 0.0	 65.0	 -65.0	 1.0109	 4.0	 0	 129	 0.0	 0.0	 0.0	 0.0	 0.0	 0.0	 0.0	 0.0	 0.0	 0.0	 0.0	 251.0; % NG
	120	 121.0	 0.0	 121.0	 -121.0	 1.0109	 4.0	 0	 242	 0.0	 0.0	 0.0	 0.0	 0.0	 0.0	 0.0	 0.0	 0.0	 0.0	 0.0	 266.0; % NG
	120	 33.5	 -75.5	 34.0	 -185.0	 1.0109	 22.88	 1	 67	 0.0	 0.0	 0.0	 0.0	 0.0	 0.0	 0.0	 0.0	 0.0	 0.0	 0.0	 20.0; % PEL
	120	 43.0	 -69.0	 43.0	 -181.0	 1.0109	 20.0	 1	 86	 0.0	 0.0	 0.0	 0.0	 0.0	 0.0	 0.0	 0.0	 0.0	 0.0	 0.0	 20.0; % NG
	124	 51.25	 1.5	 179.0	 -176.0	 1.0164	 13.31	 1	 100	 2.5	 0.0	 0.0	 0.0	 0.0	 0.0	 0.0	 0.0	 0.0	 0.0	 0.0	 20.0; % PEL
	124	 7.25	 0.0	 6.0	 -6.0	 1.0164	 12.0	 0	 12	 2.5	 0.0	 0.0	 0.0	 0.0	 0.0	 0.0	 0.0	 0.0	 0.0	 0.0	 20.0; % PEL
	128	 200.5	 0.0	 200.0	 -200.0	 1.0082	 5.0	 0	 399	 2.0	 0.0	 0.0	 0.0	 0.0	 0.0	 0.0	 0.0	 0.0	 0.0	 0.0	 274.0; % NG
	132	 34.0	 -67.5	 34.0	 -169.0	 1.0082	 15.84	 1	 68	 0.0	 0.0	 0.0	 0.0	 0.0	 0.0	 0.0	 0.0	 0.0	 0.0	 0.0	 16.5; % PEL
	132	 92.0	 2.0	 178.0	 -174.0	 1.0082	 5.0	 1	 184	 0.0	 0.0	 0.0	 0.0	 0.0	 0.0	 0.0	 0.0	 0.0	 0.0	 0.0	 255.0; % NG
	132	 88.5	 0.0	 89.0	 -89.0	 1.0082	 5.0	 0	 177	 0.0	 0.0	 0.0	 0.0	 0.0	 0.0	 0.0	 0.0	 0.0	 0.0	 0.0	 262.0; % COW
	133	 5.5	 0.0	 6.0	 -6.0	 1.0082	 13.0	 0	 11	 0.0	 0.0	 0.0	 0.0	 0.0	 0.0	 0.0	 0.0	 0.0	 0.0	 0.0	 13.0; % NG
	136	 279.25	 0.0	 278.0	 -278.0	 1.0136	 6.0	 0	 556	 2.5	 0.0	 0.0	 0.0	 0.0	 0.0	 0.0	 0.0	 0.0	 0.0	 0.0	 298.0; % NG
	147	 48.5	 -2.5	 176.0	 -181.0	 1.0218	 1.0	 1	 97	 0.0	 0.0	 0.0	 0.0	 0.0	 0.0	 0.0	 0.0	 0.0	 0.0	 0.0	 282.0; % NG
	153	 6.5	 0.0	 7.0	 -7.0	 1.0164	 11.0	 0	 13	 0.0	 0.0	 0.0	 0.0	 0.0	 0.0	 0.0	 0.0	 0.0	 0.0	 0.0	 11.0; % NG
	153	 75.5	 0.0	 76.0	 -76.0	 1.0164	 6.0	 0	 151	 0.0	 0.0	 0.0	 0.0	 0.0	 0.0	 0.0	 0.0	 0.0	 0.0	 0.0	 270.0; % NG
	153	 62.5	 -52.5	 63.0	 -168.0	 1.0164	 41.48	 1	 125	 0.0	 0.0	 0.0	 0.0	 0.0	 0.0	 0.0	 0.0	 0.0	 0.0	 0.0	 40.0; % NG
	153	 152.0	 -14.5	 152.0	 -181.0	 1.0164	 40.0	 1	 304	 0.0	 0.0	 0.0	 0.0	 0.0	 0.0	 0.0	 0.0	 0.0	 0.0	 0.0	 40.0; % NG
	157	 51.0	 8.5	 194.0	 -177.0	 1.0191	 35.0	 1	 102	 0.0	 0.0	 0.0	 0.0	 0.0	 0.0	 0.0	 0.0	 0.0	 0.0	 0.0	 35.0; % PEL
	157	 22.0	 0.0	 22.0	 -22.0	 1.0191	 35.0	 0	 44	 0.0	 0.0	 0.0	 0.0	 0.0	 0.0	 0.0	 0.0	 0.0	 0.0	 0.0	 35.0; % PEL
	159	 94.1325	 52.5	 196.0	 -91.0	 1.0142	 100.0	 1	 182	 6.265	 0.0	 0.0	 0.0	 0.0	 0.0	 0.0	 0.0	 0.0	 0.0	 0.0	 44.724; % NG
	160	 27.5	 0.0	 28.0	 -28.0	 1.0191	 34.12	 1	 55	 0.0	 0.0	 0.0	 0.0	 0.0	 0.0	 0.0	 0.0	 0.0	 0.0	 0.0	 33.375; % NG
	160	 41.0	 0.0	 41.0	 -41.0	 1.0191	 27.0	 1	 82	 0.0	 0.0	 0.0	 0.0	 0.0	 0.0	 0.0	 0.0	 0.0	 0.0	 0.0	 27.0; % NG
	170	 84.0	 0.0	 330.75	 -330.75	 1.01	 100.0	 1	 168	 0.0	 0.0	 0.0	 0.0	 0.0	 0.0	 0.0	 0.0	 0.0	 0.0	 0.0	 367.5; % NG
	171	 507.585	 0.0	 439.0	 -439.0	 0.9978	 100.0	 1	 877	 138.17	 0.0	 0.0	 0.0	 0.0	 0.0	 0.0	 0.0	 0.0	 0.0	 0.0	 1108.425; % COW
	172	 71.5	 0.0	 194.4	 -194.4	 1.01	 100.0	 1	 143	 0.0	 0.0	 0.0	 0.0	 0.0	 0.0	 0.0	 0.0	 0.0	 0.0	 0.0	 270.0; % NG
	175	 172.5	 0.0	 205.2	 -205.2	 1.01	 100.0	 1	 345	 0.0	 0.0	 0.0	 0.0	 0.0	 0.0	 0.0	 0.0	 0.0	 0.0	 0.0	 285.0; % COW
	176	 118.0	 0.0	 205.2	 -205.2	 1.01	 100.0	 1	 236	 0.0	 0.0	 0.0	 0.0	 0.0	 0.0	 0.0	 0.0	 0.0	 0.0	 0.0	 285.0; % NG
	177	 106.0	 0.0	 205.2	 -205.2	 1.01	 100.0	 1	 212	 0.0	 0.0	 0.0	 0.0	 0.0	 0.0	 0.0	 0.0	 0.0	 0.0	 0.0	 285.0; % NG
	178	 204.0	 0.0	 349.65	 -349.65	 1.01	 100.0	 1	 408	 0.0	 0.0	 0.0	 0.0	 0.0	 0.0	 0.0	 0.0	 0.0	 0.0	 0.0	 388.5; % NG
	180	 178.0	 0.0	 389.11	 -389.11	 1.01	 100.0	 1	 356	 0.0	 0.0	 0.0	 0.0	 0.0	 0.0	 0.0	 0.0	 0.0	 0.0	 0.0	 432.348; % NG
	181	 406.0	 0.0	 406.0	 -406.0	 1.01	 100.0	 1	 812	 0.0	 0.0	 0.0	 0.0	 0.0	 0.0	 0.0	 0.0	 0.0	 0.0	 0.0	 432.347; % NG
	183	 336.0	 0.0	 364.53	 -364.53	 1.01	 100.0	 1	 672	 0.0	 0.0	 0.0	 0.0	 0.0	 0.0	 0.0	 0.0	 0.0	 0.0	 0.0	 405.03; % COW
	184	 200.5	 0.0	 364.49	 -364.49	 1.01	 100.0	 1	 401	 0.0	 0.0	 0.0	 0.0	 0.0	 0.0	 0.0	 0.0	 0.0	 0.0	 0.0	 404.985; % NG
	185	 157.5	 0.0	 364.55	 -364.55	 1.01	 100.0	 1	 315	 0.0	 0.0	 0.0	 0.0	 0.0	 0.0	 0.0	 0.0	 0.0	 0.0	 0.0	 405.051; % NG
	186	 318.5	 0.0	 364.53	 -364.53	 1.01	 100.0	 1	 637	 0.0	 0.0	 0.0	 0.0	 0.0	 0.0	 0.0	 0.0	 0.0	 0.0	 0.0	 405.028; % COW
	188	 132.0	 0.0	 360.05	 -360.05	 1.01	 100.0	 1	 264	 0.0	 0.0	 0.0	 0.0	 0.0	 0.0	 0.0	 0.0	 0.0	 0.0	 0.0	 400.05; % COW
	189	 265.5	 0.0	 360.05	 -360.05	 1.01	 100.0	 1	 531	 0.0	 0.0	 0.0	 0.0	 0.0	 0.0	 0.0	 0.0	 0.0	 0.0	 0.0	 400.05; % NG
	190	 137.5	 0.0	 359.91	 -359.91	 1.01	 100.0	 1	 275	 0.0	 0.0	 0.0	 0.0	 0.0	 0.0	 0.0	 0.0	 0.0	 0.0	 0.0	 399.9; % NG
	192	 131.5	 0.0	 346.95	 -346.95	 1.01	 100.0	 1	 263	 0.0	 0.0	 0.0	 0.0	 0.0	 0.0	 0.0	 0.0	 0.0	 0.0	 0.0	 385.5; % NG
	193	 158.0	 0.0	 346.95	 -346.95	 1.01	 100.0	 1	 316	 0.0	 0.0	 0.0	 0.0	 0.0	 0.0	 0.0	 0.0	 0.0	 0.0	 0.0	 385.5; % NG
	194	 187.5	 0.0	 367.96	 -367.96	 1.01	 100.0	 1	 375	 0.0	 0.0	 0.0	 0.0	 0.0	 0.0	 0.0	 0.0	 0.0	 0.0	 0.0	 408.848; % NG
	197	 557.6	 0.0	 418.0	 -418.0	 0.9981	 100.0	 1	 836	 279.2	 0.0	 0.0	 0.0	 0.0	 0.0	 0.0	 0.0	 0.0	 0.0	 0.0	 776.819; % COW
	198	 826.815	 0.0	 682.0	 -682.0	 0.9931	 100.0	 1	 1363	 290.63	 0.0	 0.0	 0.0	 0.0	 0.0	 0.0	 0.0	 0.0	 0.0	 0.0	 871.884; % COW
	203	 196.3425	 0.0	 146.0	 -146.0	 0.9854	 100.0	 1	 291	 101.685	 0.0	 0.0	 0.0	 0.0	 0.0	 0.0	 0.0	 0.0	 0.0	 0.0	 917.82; % COW
	204	 153.0	 0.0	 153.0	 -153.0	 0.9956	 100.0	 0	 306	 0.0	 0.0	 0.0	 0.0	 0.0	 0.0	 0.0	 0.0	 0.0	 0.0	 0.0	 285.0; % NG
	204	 80.0	 0.0	 80.0	 -80.0	 0.9956	 100.0	 0	 160	 0.0	 0.0	 0.0	 0.0	 0.0	 0.0	 0.0	 0.0	 0.0	 0.0	 0.0	 263.0; % NG
	205	 314.0	 0.0	 314.0	 -314.0	 0.9967	 100.0	 0	 628	 0.0	 0.0	 0.0	 0.0	 0.0	 0.0	 0.0	 0.0	 0.0	 0.0	 0.0	 256.0; % COW
	205	 250.5	 0.0	 251.0	 -251.0	 0.9967	 100.0	 0	 501	 0.0	 0.0	 0.0	 0.0	 0.0	 0.0	 0.0	 0.0	 0.0	 0.0	 0.0	 292.0; % COW
	206	 1291.4525	 0.0	 950.0	 -950.0	 0.9812	 100.0	 1	 1900	 682.905	 0.0	 0.0	 0.0	 0.0	 0.0	 0.0	 0.0	 0.0	 0.0	 0.0	 1966.771; % COW
	211	 114.5	 0.0	 115.0	 -115.0	 0.9967	 100.0	 0	 229	 0.0	 0.0	 0.0	 0.0	 0.0	 0.0	 0.0	 0.0	 0.0	 0.0	 0.0	 269.0; % NG
	211	 120.5	 0.0	 121.0	 -121.0	 0.9967	 100.0	 0	 241	 0.0	 0.0	 0.0	 0.0	 0.0	 0.0	 0.0	 0.0	 0.0	 0.0	 0.0	 269.0; % NG
	220	 105.73	 0.0	 86.0	 -86.0	 0.9936	 100.0	 0	 171	 40.46	 0.0	 0.0	 0.0	 0.0	 0.0	 0.0	 0.0	 0.0	 0.0	 0.0	 95.919; % NG
	228	 430.59	 0.0	 347.0	 -347.0	 0.965	 100.0	 1	 693	 168.18	 0.0	 0.0	 0.0	 0.0	 0.0	 0.0	 0.0	 0.0	 0.0	 0.0	 451.68; % NG
	229	 572.62	 0.0	 512.0	 -512.0	 0.9554	 100.0	 1	 1024	 121.24	 0.0	 0.0	 0.0	 0.0	 0.0	 0.0	 0.0	 0.0	 0.0	 0.0	 363.72; % COW
	230	 508.1425	 0.0	 456.0	 -456.0	 0.9624	 100.0	 1	 911	 105.285	 0.0	 0.0	 0.0	 0.0	 0.0	 0.0	 0.0	 0.0	 0.0	 0.0	 287.547; % NG
	246	 69.5	 0.0	 70.0	 -70.0	 1.01	 100.0	 0	 139	 0.0	 0.0	 0.0	 0.0	 0.0	 0.0	 0.0	 0.0	 0.0	 0.0	 0.0	 256.0; % NG
	247	 87.0	 0.0	 87.0	 -87.0	 1.01	 100.0	 0	 174	 0.0	 0.0	 0.0	 0.0	 0.0	 0.0	 0.0	 0.0	 0.0	 0.0	 0.0	 251.0; % COW
	258	 146.5	 0.0	 182.25	 -182.25	 1.01	 100.0	 1	 293	 0.0	 0.0	 0.0	 0.0	 0.0	 0.0	 0.0	 0.0	 0.0	 0.0	 0.0	 253.125; % NG
	259	 108.5	 0.0	 182.25	 -182.25	 1.01	 100.0	 1	 217	 0.0	 0.0	 0.0	 0.0	 0.0	 0.0	 0.0	 0.0	 0.0	 0.0	 0.0	 253.125; % NG
	260	 102.0	 0.0	 182.25	 -182.25	 1.01	 100.0	 1	 204	 0.0	 0.0	 0.0	 0.0	 0.0	 0.0	 0.0	 0.0	 0.0	 0.0	 0.0	 253.125; % NG
	262	 493.0	 0.0	 493.0	 -493.0	 1.01	 100.0	 1	 986	 0.0	 0.0	 0.0	 0.0	 0.0	 0.0	 0.0	 0.0	 0.0	 0.0	 0.0	 412.164; % COW
	307	 378.0	 0.0	 378.0	 -378.0	 1.01	 100.0	 1	 756	 0.0	 0.0	 0.0	 0.0	 0.0	 0.0	 0.0	 0.0	 0.0	 0.0	 0.0	 419.147; % COW
	316	 70.0475	 0.0	 69.0	 -69.0	 1.0055	 100.0	 1	 137	 3.095	 0.0	 0.0	 0.0	 0.0	 0.0	 0.0	 0.0	 0.0	 0.0	 0.0	 32.912; % NG
	319	 42.1825	 76.0	 193.0	 -41.0	 1.012	 100.0	 1	 82	 2.365	 0.0	 0.0	 0.0	 0.0	 0.0	 0.0	 0.0	 0.0	 0.0	 0.0	 43.567; % NG
	321	 49.0	 0.0	 49.0	 -49.0	 1.01	 100.0	 1	 98	 0.0	 0.0	 0.0	 0.0	 0.0	 0.0	 0.0	 0.0	 0.0	 0.0	 0.0	 46.875; % NG
	323	 42.5	 0.0	 43.0	 -43.0	 1.01	 100.0	 1	 85	 0.0	 0.0	 0.0	 0.0	 0.0	 0.0	 0.0	 0.0	 0.0	 0.0	 0.0	 46.875; % NG
	324	 35.3	 82.0	 189.0	 -25.0	 1.005	 100.0	 1	 50	 20.6	 0.0	 0.0	 0.0	 0.0	 0.0	 0.0	 0.0	 0.0	 0.0	 0.0	 64.438; % NG
	326	 41.5	 0.0	 42.0	 -42.0	 1.0033	 100.0	 1	 83	 0.0	 0.0	 0.0	 0.0	 0.0	 0.0	 0.0	 0.0	 0.0	 0.0	 0.0	 43.125; % NG
	327	 19.5	 0.0	 31.05	 -31.05	 1.0067	 100.0	 1	 39	 0.0	 0.0	 0.0	 0.0	 0.0	 0.0	 0.0	 0.0	 0.0	 0.0	 0.0	 43.125; % PEL
	330	 52.5	 0.0	 53.0	 -53.0	 1.0067	 100.0	 1	 105	 0.0	 0.0	 0.0	 0.0	 0.0	 0.0	 0.0	 0.0	 0.0	 0.0	 0.0	 69.375; % PEL
	334	 14.5	 0.0	 15.0	 -15.0	 1.01	 100.0	 1	 29	 0.0	 0.0	 0.0	 0.0	 0.0	 0.0	 0.0	 0.0	 0.0	 0.0	 0.0	 18.75; % NG
	335	 15.5	 0.0	 16.0	 -16.0	 1.01	 100.0	 1	 31	 0.0	 0.0	 0.0	 0.0	 0.0	 0.0	 0.0	 0.0	 0.0	 0.0	 0.0	 18.75; % PEL
	336	 5.0	 0.0	 13.5	 -13.5	 1.01	 100.0	 1	 10	 0.0	 0.0	 0.0	 0.0	 0.0	 0.0	 0.0	 0.0	 0.0	 0.0	 0.0	 18.75; % NG
	340	 45.5	 0.0	 63.18	 -63.18	 1.01	 100.0	 1	 91	 0.0	 0.0	 0.0	 0.0	 0.0	 0.0	 0.0	 0.0	 0.0	 0.0	 0.0	 87.771; % NG
	342	 12.0	 0.0	 24.37	 -24.37	 1.01	 100.0	 1	 24	 0.0	 0.0	 0.0	 0.0	 0.0	 0.0	 0.0	 0.0	 0.0	 0.0	 0.0	 33.85; % NG
	345	 35.4325	 0.0	 33.33	 -33.33	 1.006	 100.0	 0	 61	 9.865	 0.0	 0.0	 0.0	 0.0	 0.0	 0.0	 0.0	 0.0	 0.0	 0.0	 34.725; % NG
	346	 27.585	 0.0	 35.64	 -35.64	 1.006	 100.0	 1	 49	 6.17	 0.0	 0.0	 0.0	 0.0	 0.0	 0.0	 0.0	 0.0	 0.0	 0.0	 34.714; % NG
	348	 95.49	 0.0	 84.0	 -84.0	 1.0061	 100.0	 1	 167	 23.98	 0.0	 0.0	 0.0	 0.0	 0.0	 0.0	 0.0	 0.0	 0.0	 0.0	 76.887; % NG
	353	 88.685	 0.0	 88.0	 -88.0	 1.0106	 100.0	 1	 176	 1.37	 0.0	 0.0	 0.0	 0.0	 0.0	 0.0	 0.0	 0.0	 0.0	 0.0	 43.626; % NG
	355	 157.6425	 0.0	 138.0	 -138.0	 1.0139	 100.0	 0	 275	 40.285	 0.0	 0.0	 0.0	 0.0	 0.0	 0.0	 0.0	 0.0	 0.0	 0.0	 95.575; % NG
	359	 134.28	 39.0	 196.0	 -118.0	 0.9852	 100.0	 1	 236	 32.56	 0.0	 0.0	 0.0	 0.0	 0.0	 0.0	 0.0	 0.0	 0.0	 0.0	 93.142; % NG
	370	 63.0125	 0.0	 58.0	 -58.0	 1.0154	 100.0	 0	 116	 10.025	 0.0	 0.0	 0.0	 0.0	 0.0	 0.0	 0.0	 0.0	 0.0	 0.0	 35.048; % PEL
	376	 24.5	 0.0	 33.75	 -33.75	 1.01	 100.0	 1	 49	 0.0	 0.0	 0.0	 0.0	 0.0	 0.0	 0.0	 0.0	 0.0	 0.0	 0.0	 46.875; % PEL
	384	 11.5	 0.0	 20.25	 -20.25	 1.0067	 100.0	 1	 23	 0.0	 0.0	 0.0	 0.0	 0.0	 0.0	 0.0	 0.0	 0.0	 0.0	 0.0	 28.125; % NG
	387	 70.7325	 0.0	 64.0	 -64.0	 1.0146	 100.0	 1	 128	 13.465	 0.0	 0.0	 0.0	 0.0	 0.0	 0.0	 0.0	 0.0	 0.0	 0.0	 47.76; % PEL
	388	 48.6875	 0.0	 41.0	 -41.0	 1.0146	 100.0	 0	 81	 16.375	 0.0	 0.0	 0.0	 0.0	 0.0	 0.0	 0.0	 0.0	 0.0	 0.0	 47.746; % NG
	391	 35.1825	 83.5	 196.0	 -29.0	 0.9874	 100.0	 1	 58	 12.365	 0.0	 0.0	 0.0	 0.0	 0.0	 0.0	 0.0	 0.0	 0.0	 0.0	 44.671; % NG
	402	 18.2575	 0.0	 30.0	 -30.0	 1.0194	 100.0	 1	 30	 6.515	 0.0	 0.0	 0.0	 0.0	 0.0	 0.0	 0.0	 0.0	 0.0	 0.0	 38.249; % NG
	404	 68.75	 -58.5	 66.0	 -183.0	 1.0245	 78.0	 1	 132	 5.5	 0.0	 0.0	 0.0	 0.0	 0.0	 0.0	 0.0	 0.0	 0.0	 0.0	 78.0; % NG
	422	 71.25	 -54.0	 66.0	 -174.0	 1.0245	 83.96	 1	 132	 10.5	 0.0	 0.0	 0.0	 0.0	 0.0	 0.0	 0.0	 0.0	 0.0	 0.0	 86.25; % COW
	441	 126.5	 2.0	 131.0	 -127.0	 1.0245	 258.66	 1	 253	 0.0	 0.0	 0.0	 0.0	 0.0	 0.0	 0.0	 0.0	 0.0	 0.0	 0.0	 268.721; % NG
	453	 39.0825	 0.0	 37.0	 -37.0	 1.0226	 100.0	 1	 74	 4.165	 0.0	 0.0	 0.0	 0.0	 0.0	 0.0	 0.0	 0.0	 0.0	 0.0	 27.174; % NG
	471	 229.1675	 0.0	 207.0	 -207.0	 0.9992	 100.0	 1	 414	 44.335	 0.0	 0.0	 0.0	 0.0	 0.0	 0.0	 0.0	 0.0	 0.0	 0.0	 187.961; % NG
	489	 83.6575	 0.0	 73.0	 -73.0	 1.0296	 100.0	 1	 146	 21.315	 0.0	 0.0	 0.0	 0.0	 0.0	 0.0	 0.0	 0.0	 0.0	 0.0	 113.922; % COW
	494	 287.5	 0.0	 260.0	 -260.0	 1.0273	 306.24	 1	 520	 55.0	 0.0	 0.0	 0.0	 0.0	 0.0	 0.0	 0.0	 0.0	 0.0	 0.0	 256.25; % NG
	494	 130.25	 0.0	 99.0	 -99.0	 1.0273	 220.0	 0	 198	 62.5	 0.0	 0.0	 0.0	 0.0	 0.0	 0.0	 0.0	 0.0	 0.0	 0.0	 220.0; % NG
	495	 410.75	 0.0	 380.0	 -380.0	 1.0273	 225.0	 0	 759	 62.5	 0.0	 0.0	 0.0	 0.0	 0.0	 0.0	 0.0	 0.0	 0.0	 0.0	 225.0; % COW
	495	 142.0	 10.325	 186.25	 -165.6	 1.0273	 304.12	 1	 229	 55.0	 0.0	 0.0	 0.0	 0.0	 0.0	 0.0	 0.0	 0.0	 0.0	 0.0	 256.25; % COW
	496	 203.0	 0.0	 176.0	 -176.0	 1.0273	 274.96	 1	 351	 55.0	 0.0	 0.0	 0.0	 0.0	 0.0	 0.0	 0.0	 0.0	 0.0	 0.0	 281.25; % NG
	496	 141.5	 18.5	 149.0	 -112.0	 1.0273	 228.01	 1	 223	 60.0	 0.0	 0.0	 0.0	 0.0	 0.0	 0.0	 0.0	 0.0	 0.0	 0.0	 225.0; % NG
	497	 242.75	 92.0	 363.0	 -179.0	 1.0105	 535.0	 1	 358	 127.5	 0.0	 0.0	 0.0	 0.0	 0.0	 0.0	 0.0	 0.0	 0.0	 0.0	 535.0; % NG
	498	 257.0	 76.5	 348.0	 -195.0	 1.0105	 560.0	 1	 389	 125.0	 0.0	 0.0	 0.0	 0.0	 0.0	 0.0	 0.0	 0.0	 0.0	 0.0	 560.0; % NG
	502	 85.21	 0.0	 65.0	 -65.0	 0.9924	 100.0	 1	 129	 41.42	 0.0	 0.0	 0.0	 0.0	 0.0	 0.0	 0.0	 0.0	 0.0	 0.0	 147.174; % NG
	504	 166.985	 0.0	 148.0	 -148.0	 1.003	 100.0	 1	 296	 37.97	 0.0	 0.0	 0.0	 0.0	 0.0	 0.0	 0.0	 0.0	 0.0	 0.0	 233.656; % NG
	505	 139.75	 0.0	 108.0	 -108.0	 1.0098	 225.0	 0	 215	 64.5	 0.0	 0.0	 0.0	 0.0	 0.0	 0.0	 0.0	 0.0	 0.0	 0.0	 225.0; % NG
	505	 266.25	 0.0	 234.0	 -234.0	 1.0098	 225.0	 0	 468	 64.5	 0.0	 0.0	 0.0	 0.0	 0.0	 0.0	 0.0	 0.0	 0.0	 0.0	 225.0; % NG
	505	 120.9125	 0.0	 102.0	 -102.0	 1.0098	 100.0	 0	 204	 37.825	 0.0	 0.0	 0.0	 0.0	 0.0	 0.0	 0.0	 0.0	 0.0	 0.0	 90.647; % NG
	514	 16.305	 0.0	 33.33	 -33.33	 1.0313	 100.0	 0	 25	 7.61	 0.0	 0.0	 0.0	 0.0	 0.0	 0.0	 0.0	 0.0	 0.0	 0.0	 30.222; % PEL
	515	 58.05	 31.3	 191.0	 -128.4	 1.0313	 100.0	 1	 112	 4.1	 0.0	 0.0	 0.0	 0.0	 0.0	 0.0	 0.0	 0.0	 0.0	 0.0	 74.821; % NG
	516	 104.2725	 0.0	 86.0	 -86.0	 1.0041	 100.0	 0	 171	 37.545	 0.0	 0.0	 0.0	 0.0	 0.0	 0.0	 0.0	 0.0	 0.0	 0.0	 90.088; % NG
	517	 37.6525	 0.0	 35.0	 -35.0	 1.0211	 100.0	 1	 70	 5.305	 0.0	 0.0	 0.0	 0.0	 0.0	 0.0	 0.0	 0.0	 0.0	 0.0	 88.022; % PEL
	518	 62.0875	 0.0	 52.0	 -52.0	 1.0209	 100.0	 0	 103	 21.175	 0.0	 0.0	 0.0	 0.0	 0.0	 0.0	 0.0	 0.0	 0.0	 0.0	 57.353; % PEL
	519	 251.79	 0.0	 252.0	 -252.0	 1.029	 100.0	 0	 503	 0.58	 0.0	 0.0	 0.0	 0.0	 0.0	 0.0	 0.0	 0.0	 0.0	 0.0	 284.0; % NG
	520	 134.25	 0.0	 134.0	 -134.0	 1.0109	 6.0	 0	 268	 0.5	 0.0	 0.0	 0.0	 0.0	 0.0	 0.0	 0.0	 0.0	 0.0	 0.0	 258.0; % NG
	520	 164.25	 0.0	 164.0	 -164.0	 1.0109	 6.0	 0	 328	 0.5	 0.0	 0.0	 0.0	 0.0	 0.0	 0.0	 0.0	 0.0	 0.0	 0.0	 292.0; % COW
	537	 53.715	 0.0	 40.0	 -40.0	 1.0486	 100.0	 0	 80	 27.43	 0.0	 0.0	 0.0	 0.0	 0.0	 0.0	 0.0	 0.0	 0.0	 0.0	 69.858; % PEL
	538	 43.25	 8.5	 57.0	 -40.0	 1.0218	 68.9	 1	 79	 7.5	 0.0	 0.0	 0.0	 0.0	 0.0	 0.0	 0.0	 0.0	 0.0	 0.0	 68.75; % NG
	538	 74.25	 0.0	 74.0	 -74.0	 1.0218	 77.0	 1	 147	 1.5	 0.0	 0.0	 0.0	 0.0	 0.0	 0.0	 0.0	 0.0	 0.0	 0.0	 77.0; % NG
	544	 81.25	 0.0	 81.0	 -81.0	 1.0136	 7.0	 0	 161	 1.5	 0.0	 0.0	 0.0	 0.0	 0.0	 0.0	 0.0	 0.0	 0.0	 0.0	 280.0; % NG
	558	 328.25	 0.0	 328.0	 -328.0	 1.0191	 4.0	 0	 655	 1.5	 0.0	 0.0	 0.0	 0.0	 0.0	 0.0	 0.0	 0.0	 0.0	 0.0	 297.0; % COW
	565	 53.25	 -62.5	 44.0	 -169.0	 1.0164	 63.02	 1	 88	 18.5	 0.0	 0.0	 0.0	 0.0	 0.0	 0.0	 0.0	 0.0	 0.0	 0.0	 65.0; % PEL
	565	 30.5	 0.0	 28.0	 -28.0	 1.0164	 30.0	 0	 56	 5.0	 0.0	 0.0	 0.0	 0.0	 0.0	 0.0	 0.0	 0.0	 0.0	 0.0	 30.0; % NG
	565	 62.0	 0.0	 50.0	 -50.0	 1.0164	 105.0	 0	 99	 25.0	 0.0	 0.0	 0.0	 0.0	 0.0	 0.0	 0.0	 0.0	 0.0	 0.0	 105.0; % NG
	565	 57.0	 -47.0	 85.0	 -179.0	 1.0164	 105.0	 1	 89	 25.0	 0.0	 0.0	 0.0	 0.0	 0.0	 0.0	 0.0	 0.0	 0.0	 0.0	 105.0; % NG
	599	 170.25	 6.0	 149.0	 -137.0	 1.0273	 249.58	 1	 273	 67.5	 0.0	 0.0	 0.0	 0.0	 0.0	 0.0	 0.0	 0.0	 0.0	 0.0	 256.25; % NG
	600	 228.5	 0.0	 201.0	 -201.0	 1.0273	 225.0	 0	 402	 55.0	 0.0	 0.0	 0.0	 0.0	 0.0	 0.0	 0.0	 0.0	 0.0	 0.0	 225.0; % COW
	603	 81.5	 0.0	 65.0	 -65.0	 1.0218	 170.0	 0	 130	 33.0	 0.0	 0.0	 0.0	 0.0	 0.0	 0.0	 0.0	 0.0	 0.0	 0.0	 170.0; % NG
	603	 35.5	 0.0	 27.0	 -27.0	 1.0218	 61.0	 0	 54	 17.0	 0.0	 0.0	 0.0	 0.0	 0.0	 0.0	 0.0	 0.0	 0.0	 0.0	 61.0; % NG
	605	 10.5	 0.0	 11.0	 -11.0	 1.0218	 21.0	 0	 21	 0.0	 0.0	 0.0	 0.0	 0.0	 0.0	 0.0	 0.0	 0.0	 0.0	 0.0	 21.0; % NG
	624	 81.785	 55.0	 185.0	 -75.0	 1.0206	 100.0	 1	 149	 14.57	 0.0	 0.0	 0.0	 0.0	 0.0	 0.0	 0.0	 0.0	 0.0	 0.0	 96.995; % NG
	627	 118.75	 0.0	 119.0	 -119.0	 1.0191	 2.0	 0	 237	 0.5	 0.0	 0.0	 0.0	 0.0	 0.0	 0.0	 0.0	 0.0	 0.0	 0.0	 280.0; % NG
	627	 70.595	 64.0	 195.0	 -67.0	 1.0191	 100.0	 1	 133	 8.19	 0.0	 0.0	 0.0	 0.0	 0.0	 0.0	 0.0	 0.0	 0.0	 0.0	 48.183; % NG
	630	 35.0	 0.0	 35.0	 -35.0	 1.0191	 36.0	 0	 70	 0.0	 0.0	 0.0	 0.0	 0.0	 0.0	 0.0	 0.0	 0.0	 0.0	 0.0	 36.0; % NG
	632	 87.5	 0.0	 87.0	 -87.0	 1.0218	 3.0	 0	 174	 1.0	 0.0	 0.0	 0.0	 0.0	 0.0	 0.0	 0.0	 0.0	 0.0	 0.0	 295.0; % NG
	635	 68.78	 0.0	 68.0	 -68.0	 1.0076	 100.0	 0	 136	 1.56	 0.0	 0.0	 0.0	 0.0	 0.0	 0.0	 0.0	 0.0	 0.0	 0.0	 255.0; % COW
	638	 16.565	 0.0	 33.33	 -33.33	 1.0006	 100.0	 0	 28	 5.13	 0.0	 0.0	 0.0	 0.0	 0.0	 0.0	 0.0	 0.0	 0.0	 0.0	 25.259; % PEL
	640	 119.91	 0.0	 119.0	 -119.0	 1.0014	 100.0	 0	 238	 1.82	 0.0	 0.0	 0.0	 0.0	 0.0	 0.0	 0.0	 0.0	 0.0	 0.0	 295.0; % NG
	649	 96.75	 0.0	 97.0	 -97.0	 1.0218	 6.0	 0	 193	 0.5	 0.0	 0.0	 0.0	 0.0	 0.0	 0.0	 0.0	 0.0	 0.0	 0.0	 283.0; % NG
	651	 126.385	 0.0	 126.0	 -126.0	 1.0044	 100.0	 0	 251	 1.77	 0.0	 0.0	 0.0	 0.0	 0.0	 0.0	 0.0	 0.0	 0.0	 0.0	 269.0; % NG
	667	 231.0	 0.0	 204.0	 -204.0	 1.015	 157.0	 1	 408	 54.0	 0.0	 0.0	 0.0	 0.0	 0.0	 0.0	 0.0	 0.0	 0.0	 0.0	 150.0; % COW
	668	 313.0	 0.0	 313.0	 -313.0	 1.0078	 112.0	 1	 626	 0.0	 0.0	 0.0	 0.0	 0.0	 0.0	 0.0	 0.0	 0.0	 0.0	 0.0	 112.0; % COW
	669	 303.4	 0.0	 271.0	 -271.0	 0.9888	 100.0	 1	 542	 64.8	 0.0	 0.0	 0.0	 0.0	 0.0	 0.0	 0.0	 0.0	 0.0	 0.0	 194.4; % NG
	675	 368.5	 0.0	 339.0	 -339.0	 1.0245	 282.49	 1	 677	 60.0	 0.0	 0.0	 0.0	 0.0	 0.0	 0.0	 0.0	 0.0	 0.0	 0.0	 268.77; % COW
	676	 134.5	 7.5	 120.0	 -105.0	 1.0245	 281.34	 1	 209	 60.0	 0.0	 0.0	 0.0	 0.0	 0.0	 0.0	 0.0	 0.0	 0.0	 0.0	 268.75; % NG
	677	 191.25	 0.0	 388.8	 -388.8	 1.0245	 252.98	 1	 315	 67.5	 0.0	 0.0	 0.0	 0.0	 0.0	 0.0	 0.0	 0.0	 0.0	 0.0	 256.25; % NG
	679	 1.5	 0.0	 69.0	 -69.0	 1.0123	 135.0	 0	 138	 -135.0	 0.0	 0.0	 0.0	 0.0	 0.0	 0.0	 0.0	 0.0	 0.0	 0.0	 135.0; % COW
	679	 -33.5	 0.0	 45.0	 -45.0	 1.0123	 135.0	 0	 68	 -135.0	 0.0	 0.0	 0.0	 0.0	 0.0	 0.0	 0.0	 0.0	 0.0	 0.0	 135.0; % NG
	680	 -25.5	 0.0	 45.0	 -45.0	 1.0123	 135.0	 0	 84	 -135.0	 0.0	 0.0	 0.0	 0.0	 0.0	 0.0	 0.0	 0.0	 0.0	 0.0	 135.0; % NG
	680	 -9.0	 0.0	 59.0	 -59.0	 1.0123	 135.0	 0	 117	 -135.0	 0.0	 0.0	 0.0	 0.0	 0.0	 0.0	 0.0	 0.0	 0.0	 0.0	 135.0; % NG
	687	 32.5	 0.0	 23.0	 -23.0	 1.0245	 50.0	 0	 46	 19.0	 0.0	 0.0	 0.0	 0.0	 0.0	 0.0	 0.0	 0.0	 0.0	 0.0	 50.0; % PEL
	687	 45.0	 0.0	 36.0	 -36.0	 1.0245	 50.0	 0	 71	 19.0	 0.0	 0.0	 0.0	 0.0	 0.0	 0.0	 0.0	 0.0	 0.0	 0.0	 50.0; % NG
	687	 86.5	 0.0	 77.0	 -77.0	 1.0245	 50.0	 0	 154	 19.0	 0.0	 0.0	 0.0	 0.0	 0.0	 0.0	 0.0	 0.0	 0.0	 0.0	 50.0; % NG
	688	 65.0	 0.0	 56.0	 -56.0	 1.0245	 50.0	 0	 111	 19.0	 0.0	 0.0	 0.0	 0.0	 0.0	 0.0	 0.0	 0.0	 0.0	 0.0	 50.0; % NG
	697	 209.03	 0.0	 209.0	 -209.0	 1.0214	 100.0	 0	 418	 0.06	 0.0	 0.0	 0.0	 0.0	 0.0	 0.0	 0.0	 0.0	 0.0	 0.0	 262.0; % NG
	698	 138.5	 5.5	 120.0	 -109.0	 1.0273	 273.78	 1	 217	 60.0	 0.0	 0.0	 0.0	 0.0	 0.0	 0.0	 0.0	 0.0	 0.0	 0.0	 268.75; % COW
	700	 34.1475	 0.0	 34.0	 -34.0	 1.0233	 100.0	 1	 67	 1.295	 0.0	 0.0	 0.0	 0.0	 0.0	 0.0	 0.0	 0.0	 0.0	 0.0	 60.349; % NG
	704	 88.5	 6.0	 83.0	 -71.0	 1.0273	 160.45	 1	 142	 35.0	 0.0	 0.0	 0.0	 0.0	 0.0	 0.0	 0.0	 0.0	 0.0	 0.0	 156.25; % NG
	704	 98.0	 1.0	 83.0	 -81.0	 1.0273	 143.77	 1	 161	 35.0	 0.0	 0.0	 0.0	 0.0	 0.0	 0.0	 0.0	 0.0	 0.0	 0.0	 125.0; % NG
	726	 163.0	 5.5	 195.0	 -184.0	 1.0129	 42.43	 1	 326	 0.0	 0.0	 0.0	 0.0	 0.0	 0.0	 0.0	 0.0	 0.0	 0.0	 0.0	 257.0; % NG
	727	 82.4525	 0.0	 70.0	 -70.0	 0.9661	 100.0	 1	 140	 24.905	 0.0	 0.0	 0.0	 0.0	 0.0	 0.0	 0.0	 0.0	 0.0	 0.0	 121.921; % NG
	731	 299.18	 0.0	 246.0	 -246.0	 0.9992	 100.0	 0	 491	 107.36	 0.0	 0.0	 0.0	 0.0	 0.0	 0.0	 0.0	 0.0	 0.0	 0.0	 229.718; % NG
	732	 33.9275	 0.0	 33.33	 -33.33	 0.9638	 100.0	 0	 51	 16.855	 0.0	 0.0	 0.0	 0.0	 0.0	 0.0	 0.0	 0.0	 0.0	 0.0	 48.706; % PEL
	736	 -98.5	 21.5	 105.0	 -62.0	 1.0113	 216.55	 1	 3	 -200.0	 0.0	 0.0	 0.0	 0.0	 0.0	 0.0	 0.0	 0.0	 0.0	 0.0	 179.0; % NG
	736	 12.0	 0.0	 112.0	 -112.0	 1.0113	 179.0	 1	 224	 -200.0	 0.0	 0.0	 0.0	 0.0	 0.0	 0.0	 0.0	 0.0	 0.0	 0.0	 179.0; % COW
...
];

%% generator cost data
%	2	startup	shutdown	n	c(n-1)	...	c0
mpc.gencost = [
	2	 0.0	 0.0	 3	   0.000000	  45.826979	   0.000000; % NG
	2	 0.0	 0.0	 3	   0.000000	  28.373700	   0.000000; % NG
	2	 0.0	 0.0	 3	   0.000000	  36.154939	   0.000000; % NG
	2	 0.0	 0.0	 3	   0.000000	  48.048289	   0.000000; % NG
	2	 0.0	 0.0	 3	   0.000000	  32.356810	   0.000000; % NG
	2	 0.0	 0.0	 3	   0.000000	  25.488510	   0.000000; % NG
	2	 0.0	 0.0	 3	   0.000000	  49.732255	   0.000000; % NG
	2	 0.0	 0.0	 3	   0.000000	  34.639147	   0.000000; % COW
	2	 0.0	 0.0	 3	   0.000000	  45.704705	   0.000000; % NG
	2	 0.0	 0.0	 3	   0.000000	  30.413251	   0.000000; % COW
	2	 0.0	 0.0	 3	   0.000000	  13.552699	   0.000000; % NG
	2	 0.0	 0.0	 3	   0.000000	  49.339814	   0.000000; % NG
	2	 0.0	 0.0	 3	   0.000000	  66.699033	   0.000000; % COW
	2	 0.0	 0.0	 3	   0.000000	  21.983915	   0.000000; % NG
	2	 0.0	 0.0	 3	   0.000000	  52.281308	   0.000000; % NG
	2	 0.0	 0.0	 3	   0.000000	  25.686458	   0.000000; % NG
	2	 0.0	 0.0	 3	   0.000000	  21.903413	   0.000000; % NG
	2	 0.0	 0.0	 3	   0.000000	  36.512396	   0.000000; % NG
	2	 0.0	 0.0	 3	   0.000000	  31.063774	   0.000000; % PEL
	2	 0.0	 0.0	 3	   0.000000	 143.114575	   0.000000; % PEL
	2	 0.0	 0.0	 3	   0.000000	  54.266983	   0.000000; % PEL
	2	 0.0	 0.0	 3	   0.000000	  31.596207	   0.000000; % COW
	2	 0.0	 0.0	 3	   0.000000	  53.736369	   0.000000; % NG
	2	 0.0	 0.0	 3	   0.000000	 146.716619	   0.000000; % NG
	2	 0.0	 0.0	 3	   0.000000	  37.850027	   0.000000; % PEL
	2	 0.0	 0.0	 3	   0.000000	  42.448909	   0.000000; % NG
	2	 0.0	 0.0	 3	   0.000000	  31.897223	   0.000000; % NG
	2	 0.0	 0.0	 3	   0.000000	  40.188324	   0.000000; % NG
	2	 0.0	 0.0	 3	   0.000000	  36.929744	   0.000000; % NG
	2	 0.0	 0.0	 3	   0.000000	  29.514804	   0.000000; % NG
	2	 0.0	 0.0	 3	   0.000000	 120.976820	   0.000000; % NG
	2	 0.0	 0.0	 3	   0.000000	 120.428550	   0.000000; % NG
	2	 0.0	 0.0	 3	   0.000000	  57.403186	   0.000000; % NG
	2	 0.0	 0.0	 3	   0.000000	  17.740351	   0.000000; % COW
	2	 0.0	 0.0	 3	   0.000000	  55.823937	   0.000000; % NG
	2	 0.0	 0.0	 3	   0.000000	  41.616745	   0.000000; % NG
	2	 0.0	 0.0	 3	   0.000000	  49.205900	   0.000000; % NG
	2	 0.0	 0.0	 3	   0.000000	  50.451420	   0.000000; % NG
	2	 0.0	 0.0	 3	   0.000000	  56.734635	   0.000000; % PEL
	2	 0.0	 0.0	 3	   0.000000	  48.398266	   0.000000; % NG
	2	 0.0	 0.0	 3	   0.000000	 111.927939	   0.000000; % PEL
	2	 0.0	 0.0	 3	   0.000000	  55.540793	   0.000000; % PEL
	2	 0.0	 0.0	 3	   0.000000	  21.106655	   0.000000; % NG
	2	 0.0	 0.0	 3	   0.000000	  40.395813	   0.000000; % PEL
	2	 0.0	 0.0	 3	   0.000000	  18.219213	   0.000000; % NG
	2	 0.0	 0.0	 3	   0.000000	  46.019870	   0.000000; % COW
	2	 0.0	 0.0	 3	   0.000000	 100.670447	   0.000000; % NG
	2	 0.0	 0.0	 3	   0.000000	   8.522348	   0.000000; % NG
	2	 0.0	 0.0	 3	   0.000000	  48.871459	   0.000000; % NG
	2	 0.0	 0.0	 3	   0.000000	  57.735209	   0.000000; % NG
	2	 0.0	 0.0	 3	   0.000000	  39.663554	   0.000000; % NG
	2	 0.0	 0.0	 3	   0.000000	  45.287602	   0.000000; % NG
	2	 0.0	 0.0	 3	   0.000000	  49.607961	   0.000000; % NG
	2	 0.0	 0.0	 3	   0.000000	 120.977261	   0.000000; % PEL
	2	 0.0	 0.0	 3	   0.000000	  53.307273	   0.000000; % PEL
	2	 0.0	 0.0	 3	   0.000000	  45.307591	   0.000000; % NG
	2	 0.0	 0.0	 3	   0.000000	 112.347097	   0.000000; % NG
	2	 0.0	 0.0	 3	   0.000000	  45.917289	   0.000000; % NG
	2	 0.0	 0.0	 3	   0.000000	  47.339368	   0.000000; % NG
	2	 0.0	 0.0	 3	   0.000000	   7.424898	   0.000000; % COW
	2	 0.0	 0.0	 3	   0.000000	  34.684179	   0.000000; % NG
	2	 0.0	 0.0	 3	   0.000000	  18.974876	   0.000000; % COW
	2	 0.0	 0.0	 3	   0.000000	  63.907066	   0.000000; % NG
	2	 0.0	 0.0	 3	   0.000000	  47.162549	   0.000000; % NG
	2	 0.0	 0.0	 3	   0.000000	  40.307482	   0.000000; % NG
	2	 0.0	 0.0	 3	   0.000000	  36.370776	   0.000000; % NG
	2	 0.0	 0.0	 3	   0.000000	  55.633555	   0.000000; % NG
	2	 0.0	 0.0	 3	   0.000000	  24.480572	   0.000000; % COW
	2	 0.0	 0.0	 3	   0.000000	  31.929929	   0.000000; % NG
	2	 0.0	 0.0	 3	   0.000000	  29.396234	   0.000000; % NG
	2	 0.0	 0.0	 3	   0.000000	  57.676081	   0.000000; % COW
	2	 0.0	 0.0	 3	   0.000000	  23.896848	   0.000000; % COW
	2	 0.0	 0.0	 3	   0.000000	  19.027406	   0.000000; % NG
	2	 0.0	 0.0	 3	   0.000000	  26.976712	   0.000000; % NG
	2	 0.0	 0.0	 3	   0.000000	  53.095341	   0.000000; % NG
	2	 0.0	 0.0	 3	   0.000000	  48.278721	   0.000000; % NG
	2	 0.0	 0.0	 3	   0.000000	  56.415426	   0.000000; % NG
	2	 0.0	 0.0	 3	   0.000000	  25.845276	   0.000000; % COW
	2	 0.0	 0.0	 3	   0.000000	  36.821770	   0.000000; % COW
	2	 0.0	 0.0	 3	   0.000000	  23.019446	   0.000000; % COW
	2	 0.0	 0.0	 3	   0.000000	  44.008117	   0.000000; % NG
	2	 0.0	 0.0	 3	   0.000000	  47.510370	   0.000000; % NG
	2	 0.0	 0.0	 3	   0.000000	  62.013485	   0.000000; % COW
	2	 0.0	 0.0	 3	   0.000000	  34.043662	   0.000000; % COW
	2	 0.0	 0.0	 3	   0.000000	  25.768428	   0.000000; % COW
	2	 0.0	 0.0	 3	   0.000000	  53.873013	   0.000000; % NG
	2	 0.0	 0.0	 3	   0.000000	  13.017599	   0.000000; % NG
	2	 0.0	 0.0	 3	   0.000000	  36.161707	   0.000000; % NG
	2	 0.0	 0.0	 3	   0.000000	  20.626744	   0.000000; % NG
	2	 0.0	 0.0	 3	   0.000000	  51.085188	   0.000000; % COW
	2	 0.0	 0.0	 3	   0.000000	  45.352145	   0.000000; % NG
	2	 0.0	 0.0	 3	   0.000000	  52.615060	   0.000000; % NG
	2	 0.0	 0.0	 3	   0.000000	  39.319826	   0.000000; % COW
	2	 0.0	 0.0	 3	   0.000000	  38.487841	   0.000000; % NG
	2	 0.0	 0.0	 3	   0.000000	  34.693172	   0.000000; % NG
	2	 0.0	 0.0	 3	   0.000000	  22.017764	   0.000000; % NG
	2	 0.0	 0.0	 3	   0.000000	  23.192191	   0.000000; % COW
	2	 0.0	 0.0	 3	   0.000000	  41.268940	   0.000000; % COW
	2	 0.0	 0.0	 3	   0.000000	  32.351103	   0.000000; % NG
	2	 0.0	 0.0	 3	   0.000000	  60.358733	   0.000000; % NG
	2	 0.0	 0.0	 3	   0.000000	  49.815466	   0.000000; % NG
	2	 0.0	 0.0	 3	   0.000000	  28.169054	   0.000000; % NG
	2	 0.0	 0.0	 3	   0.000000	  52.890742	   0.000000; % NG
	2	 0.0	 0.0	 3	   0.000000	  39.741217	   0.000000; % NG
	2	 0.0	 0.0	 3	   0.000000	 126.062070	   0.000000; % PEL
	2	 0.0	 0.0	 3	   0.000000	  46.578563	   0.000000; % PEL
	2	 0.0	 0.0	 3	   0.000000	  32.364489	   0.000000; % NG
	2	 0.0	 0.0	 3	   0.000000	 101.813187	   0.000000; % PEL
	2	 0.0	 0.0	 3	   0.000000	  60.833524	   0.000000; % NG
	2	 0.0	 0.0	 3	   0.000000	  58.451594	   0.000000; % NG
	2	 0.0	 0.0	 3	   0.000000	 179.689583	   0.000000; % NG
	2	 0.0	 0.0	 3	   0.000000	  47.032317	   0.000000; % NG
	2	 0.0	 0.0	 3	   0.000000	  32.376275	   0.000000; % NG
	2	 0.0	 0.0	 3	   0.000000	 114.738057	   0.000000; % NG
	2	 0.0	 0.0	 3	   0.000000	  55.077749	   0.000000; % NG
	2	 0.0	 0.0	 3	   0.000000	  39.369251	   0.000000; % NG
	2	 0.0	 0.0	 3	   0.000000	 106.264435	   0.000000; % NG
	2	 0.0	 0.0	 3	   0.000000	 152.304834	   0.000000; % PEL
	2	 0.0	 0.0	 3	   0.000000	  38.212626	   0.000000; % PEL
	2	 0.0	 0.0	 3	   0.000000	  46.420487	   0.000000; % NG
	2	 0.0	 0.0	 3	   0.000000	  30.159834	   0.000000; % PEL
	2	 0.0	 0.0	 3	   0.000000	  46.698574	   0.000000; % NG
	2	 0.0	 0.0	 3	   0.000000	  58.703702	   0.000000; % NG
	2	 0.0	 0.0	 3	   0.000000	  40.168104	   0.000000; % NG
	2	 0.0	 0.0	 3	   0.000000	  18.390965	   0.000000; % NG
	2	 0.0	 0.0	 3	   0.000000	 108.846802	   0.000000; % COW
	2	 0.0	 0.0	 3	   0.000000	  41.354806	   0.000000; % NG
	2	 0.0	 0.0	 3	   0.000000	  34.869583	   0.000000; % NG
	2	 0.0	 0.0	 3	   0.000000	  41.980407	   0.000000; % NG
	2	 0.0	 0.0	 3	   0.000000	  17.180532	   0.000000; % COW
	2	 0.0	 0.0	 3	   0.000000	  42.236321	   0.000000; % NG
	2	 0.0	 0.0	 3	   0.000000	  53.685952	   0.000000; % NG
	2	 0.0	 0.0	 3	   0.000000	  40.913056	   0.000000; % COW
	2	 0.0	 0.0	 3	   0.000000	  25.310698	   0.000000; % COW
	2	 0.0	 0.0	 3	   0.000000	  43.305852	   0.000000; % NG
	2	 0.0	 0.0	 3	   0.000000	  44.521670	   0.000000; % NG
	2	 0.0	 0.0	 3	   0.000000	  22.018710	   0.000000; % NG
	2	 0.0	 0.0	 3	   0.000000	  45.827722	   0.000000; % NG
	2	 0.0	 0.0	 3	   0.000000	  52.566713	   0.000000; % NG
	2	 0.0	 0.0	 3	   0.000000	  22.577758	   0.000000; % NG
	2	 0.0	 0.0	 3	   0.000000	  42.765380	   0.000000; % NG
	2	 0.0	 0.0	 3	   0.000000	  43.154072	   0.000000; % NG
	2	 0.0	 0.0	 3	   0.000000	  68.944949	   0.000000; % NG
	2	 0.0	 0.0	 3	   0.000000	  59.991640	   0.000000; % PEL
	2	 0.0	 0.0	 3	   0.000000	  36.846294	   0.000000; % NG
	2	 0.0	 0.0	 3	   0.000000	 117.973591	   0.000000; % NG
	2	 0.0	 0.0	 3	   0.000000	  30.347324	   0.000000; % PEL
	2	 0.0	 0.0	 3	   0.000000	  54.901273	   0.000000; % PEL
	2	 0.0	 0.0	 3	   0.000000	  49.753528	   0.000000; % NG
	2	 0.0	 0.0	 3	   0.000000	  40.130517	   0.000000; % NG
	2	 0.0	 0.0	 3	   0.000000	   7.890221	   0.000000; % COW
	2	 0.0	 0.0	 3	   0.000000	  37.277339	   0.000000; % PEL
	2	 0.0	 0.0	 3	   0.000000	  50.769183	   0.000000; % NG
	2	 0.0	 0.0	 3	   0.000000	 155.220803	   0.000000; % NG
	2	 0.0	 0.0	 3	   0.000000	  35.537952	   0.000000; % NG
	2	 0.0	 0.0	 3	   0.000000	  25.320583	   0.000000; % COW
	2	 0.0	 0.0	 3	   0.000000	 130.255220	   0.000000; % PEL
	2	 0.0	 0.0	 3	   0.000000	 124.295573	   0.000000; % NG
	2	 0.0	 0.0	 3	   0.000000	  25.935828	   0.000000; % NG
	2	 0.0	 0.0	 3	   0.000000	  47.032083	   0.000000; % NG
	2	 0.0	 0.0	 3	   0.000000	  44.099591	   0.000000; % NG
	2	 0.0	 0.0	 3	   0.000000	  41.636628	   0.000000; % COW
	2	 0.0	 0.0	 3	   0.000000	  25.745856	   0.000000; % NG
	2	 0.0	 0.0	 3	   0.000000	  52.296457	   0.000000; % NG
	2	 0.0	 0.0	 3	   0.000000	 139.412649	   0.000000; % NG
	2	 0.0	 0.0	 3	   0.000000	  41.889373	   0.000000; % NG
	2	 0.0	 0.0	 3	   0.000000	  22.404430	   0.000000; % NG
	2	 0.0	 0.0	 3	   0.000000	  55.091450	   0.000000; % NG
	2	 0.0	 0.0	 3	   0.000000	 147.660402	   0.000000; % NG
	2	 0.0	 0.0	 3	   0.000000	  41.226399	   0.000000; % NG
	2	 0.0	 0.0	 3	   0.000000	  30.015491	   0.000000; % COW
	2	 0.0	 0.0	 3	   0.000000	 125.081104	   0.000000; % PEL
	2	 0.0	 0.0	 3	   0.000000	  39.857500	   0.000000; % NG
	2	 0.0	 0.0	 3	   0.000000	  33.094614	   0.000000; % NG
	2	 0.0	 0.0	 3	   0.000000	  32.096345	   0.000000; % NG
	2	 0.0	 0.0	 3	   0.000000	  52.469139	   0.000000; % COW
	2	 0.0	 0.0	 3	   0.000000	  46.757224	   0.000000; % COW
	2	 0.0	 0.0	 3	   0.000000	  56.049053	   0.000000; % NG
	2	 0.0	 0.0	 3	   0.000000	  42.917185	   0.000000; % COW
	2	 0.0	 0.0	 3	   0.000000	  52.737072	   0.000000; % NG
	2	 0.0	 0.0	 3	   0.000000	  36.886478	   0.000000; % NG
	2	 0.0	 0.0	 3	   0.000000	  48.374926	   0.000000; % COW
	2	 0.0	 0.0	 3	   0.000000	  24.391182	   0.000000; % NG
	2	 0.0	 0.0	 3	   0.000000	  36.591959	   0.000000; % NG
	2	 0.0	 0.0	 3	   0.000000	  10.181867	   0.000000; % NG
	2	 0.0	 0.0	 3	   0.000000	  38.454054	   0.000000; % PEL
	2	 0.0	 0.0	 3	   0.000000	  49.199677	   0.000000; % NG
	2	 0.0	 0.0	 3	   0.000000	  35.297628	   0.000000; % NG
	2	 0.0	 0.0	 3	   0.000000	  43.533945	   0.000000; % NG
	2	 0.0	 0.0	 3	   0.000000	  36.767870	   0.000000; % NG
	2	 0.0	 0.0	 3	   0.000000	  27.914813	   0.000000; % COW
	2	 0.0	 0.0	 3	   0.000000	  42.111957	   0.000000; % NG
	2	 0.0	 0.0	 3	   0.000000	  71.780814	   0.000000; % NG
	2	 0.0	 0.0	 3	   0.000000	  32.481434	   0.000000; % NG
	2	 0.0	 0.0	 3	   0.000000	  54.204160	   0.000000; % NG
	2	 0.0	 0.0	 3	   0.000000	  25.430343	   0.000000; % NG
	2	 0.0	 0.0	 3	   0.000000	  44.518327	   0.000000; % NG
	2	 0.0	 0.0	 3	   0.000000	  50.964634	   0.000000; % PEL
	2	 0.0	 0.0	 3	   0.000000	  48.397560	   0.000000; % NG
	2	 0.0	 0.0	 3	   0.000000	  25.484135	   0.000000; % COW
...
];

%% branch data
%	fbus	tbus	r	x	b	rateA	rateB	rateC	ratio	angle	status	angmin	angmax
mpc.branch = [
	1	 2	 0.00558	 0.04147	 0.0629	 231.0	 231.0	 231.0	 0.0	 0.0	 1	 -30.0	 30.0;
	1	 2639	 0.0001	 0.01	 0.0	 224.58	 269.49	 336.87	 0.0	 0.0	 1	 -30.0	 30.0;
	2	 3	 2e-05	 0.00021	 0.0	 876.0	 876.0	 876.0	 0.0	 0.0	 1	 -30.0	 30.0;
	4	 2	 0.00059	 0.07897	 0.0	 160.0	 160.0	 160.0	 0.9999	 0.0	 1	 -30.0	 30.0;
	2	 7	 0.01262	 0.09326	 0.14324	 231.0	 231.0	 231.0	 0.0	 0.0	 1	 -30.0	 30.0;
	2	 2681	 0.0001	 0.01	 0.0	 193.09	 231.71	 289.64	 0.0	 0.0	 1	 -30.0	 30.0;
	3	 9	 0.00525	 0.03847	 0.06053	 231.0	 231.0	 231.0	 0.0	 0.0	 1	 -30.0	 30.0;
	3	 482	 0.0001	 0.01	 0.0	 134.24	 161.08	 201.35	 0.0	 0.0	 1	 -30.0	 30.0;
	41	 4	 -0.00467	 0.16067	 0.0	 260.0	 312.0	 390.0	 0.94157	 0.0	 1	 -30.0	 30.0;
	5	 12	 0.01068	 0.0475	 0.09495	 339.0	 339.0	 339.0	 0.0	 0.0	 1	 -30.0	 30.0;
	5	 946	 0.0001	 0.01	 0.0	 234.85	 281.81	 352.27	 0.0	 0.0	 1	 -30.0	 30.0;
	6	 7	 2e-05	 0.00021	 0.0	 876.0	 876.0	 876.0	 0.0	 0.0	 1	 -30.0	 30.0;
	6	 18	 0.01436	 0.10729	 0.16081	 231.0	 231.0	 231.0	 0.0	 0.0	 1	 -30.0	 30.0;
	49	 6	 0.00155	 0.06612	 0.0	 160.0	 160.0	 160.0	 1.07516	 0.0	 1	 -30.0	 30.0;
	50	 7	 0.00157	 0.06612	 0.0	 160.0	 160.0	 160.0	 1.06463	 0.0	 1	 -30.0	 30.0;
	8	 9	 2e-05	 0.00021	 0.0	 876.0	 876.0	 876.0	 0.0	 0.0	 1	 -30.0	 30.0;
	8	 15	 0.01698	 0.12459	 0.1957	 231.0	 231.0	 231.0	 0.0	 0.0	 1	 -30.0	 30.0;
	10	 11	 2e-05	 0.00021	 0.0	 876.0	 876.0	 876.0	 0.0	 0.0	 1	 -30.0	 30.0;
	10	 4562	 0.0001	 0.01	 0.0	 172.6	 207.12	 258.9	 0.0	 0.0	 1	 -30.0	 30.0;
	11	 13	 0.01298	 0.06738	 0.10284	 250.0	 250.0	 250.0	 0.0	 0.0	 1	 -30.0	 30.0;
	12	 13	 2e-05	 0.00021	 0.0	 876.0	 876.0	 876.0	 0.0	 0.0	 1	 -30.0	 30.0;
	12	 16	 0.00698	 0.0374	 0.05463	 426.89	 554.95	 314.0	 0.0	 0.0	 1	 -30.0	 30.0;
	64	 12	 0.00165	 0.0625	 0.0	 160.0	 160.0	 160.0	 1.03303	 0.0	 1	 -30.0	 30.0;
	13	 15	 0.00436	 0.03202	 0.0503	 400.0	 400.0	 400.0	 0.0	 0.0	 1	 -30.0	 30.0;
	14	 19	 0.01105	 0.08107	 0.12824	 341.0	 341.0	 341.0	 0.0	 0.0	 1	 -30.0	 30.0;
	14	 22	 0.00355	 0.02607	 0.04096	 341.0	 341.0	 341.0	 0.0	 0.0	 1	 -30.0	 30.0;
	67	 14	 0.00118	 0.06517	 0.0	 257.74	 335.07	 160.0	 1.09791	 0.0	 1	 -30.0	 30.0;
	15	 16	 2e-05	 0.00021	 0.0	 876.0	 876.0	 876.0	 0.0	 0.0	 1	 -30.0	 30.0;
	15	 19	 0.0006	 0.00351	 0.00555	 341.0	 341.0	 341.0	 0.0	 0.0	 1	 -30.0	 30.0;
	81	 15	 0.00165	 0.06851	 0.0	 261.75	 340.27	 160.0	 1.08505	 0.0	 1	 -30.0	 30.0;
	16	 18	 0.0006	 0.00351	 0.00555	 341.0	 341.0	 341.0	 0.0	 0.0	 1	 -30.0	 30.0;
	16	 23	 0.01851	 0.1088	 0.14435	 250.0	 250.0	 250.0	 0.0	 0.0	 1	 -30.0	 30.0;
	80	 16	 0.00165	 0.06851	 0.0	 160.0	 160.0	 160.0	 1.03303	 0.0	 1	 -30.0	 30.0;
	17	 22	 0.00934	 0.0539	 0.08683	 287.0	 287.0	 287.0	 0.0	 0.0	 1	 -30.0	 30.0;
	17	 923	 0.0001	 0.01	 0.0	 139.52	 167.42	 209.28	 0.0	 0.0	 1	 -30.0	 30.0;
	18	 19	 2e-05	 0.00021	 0.0	 876.0	 876.0	 876.0	 0.0	 0.0	 1	 -30.0	 30.0;
	18	 20	 0.0003	 0.02732	 0.0	 619.71	 743.65	 929.57	 1.10037	 0.0	 1	 -30.0	 30.0;
	18	 33	 0.01682	 0.08909	 0.12993	 426.87	 554.94	 295.0	 0.0	 0.0	 1	 -30.0	 30.0;
	84	 18	 0.00163	 0.07033	 0.0	 255.36	 331.97	 160.0	 1.04795	 0.0	 1	 -30.0	 30.0;
	19	 34	 0.01384	 0.08702	 0.13484	 416.82	 541.87	 295.0	 0.0	 0.0	 1	 -30.0	 30.0;
	19	 39	 0.01118	 0.06597	 0.10778	 405.98	 527.78	 267.0	 0.0	 0.0	 1	 -30.0	 30.0;
	21	 23	 0.013	 0.07589	 0.11484	 267.0	 267.0	 267.0	 0.0	 0.0	 1	 -30.0	 30.0;
	22	 23	 2e-05	 0.00021	 0.0	 876.0	 876.0	 876.0	 0.0	 0.0	 1	 -30.0	 30.0;
	22	 24	 0.00035	 0.02375	 0.0	 500.0	 500.0	 500.0	 1.08671	 0.0	 1	 -30.0	 30.0;
	22	 26	 0.00236	 0.01411	 0.02031	 229.0	 229.0	 229.0	 0.0	 0.0	 1	 -30.0	 30.0;
	23	 25	 0.01736	 0.10969	 0.16268	 287.0	 287.0	 287.0	 0.0	 0.0	 1	 -30.0	 30.0;
	87	 23	 0.00165	 0.0593	 0.0	 361.19	 433.43	 541.79	 1.10254	 0.0	 1	 -30.0	 30.0;
	87	 24	 0.00153	 0.06206	 0.0	 362.94	 435.53	 544.42	 1.10126	 0.0	 1	 -30.0	 30.0;
	24	 168	 0.00019	 0.00196	 0.06877	 831.0	 831.0	 831.0	 0.0	 0.0	 1	 -30.0	 30.0;
	24	 477	 0.0001	 0.01	 0.0	 217.91	 261.49	 326.86	 0.0	 0.0	 1	 -30.0	 30.0;
	25	 2702	 0.0001	 0.01	 0.0	 83.7	 98.6	 125.55	 0.0	 0.0	 1	 -30.0	 30.0;
	27	 34	 0.00186	 0.02155	 0.05317	 461.0	 461.0	 461.0	 0.0	 0.0	 1	 -30.0	 30.0;
...